@<TRIPOS>MOLECULE
ZINC04219119
   18    19     0     0     0
SMALL
USER_CHARGES
5,6-dibromo-1H-indole-3-carboxylic acid
@<TRIPOS>ATOM
      1 C1         -0.0168    1.3884    0.0097 C.ar      1 <0>        -0.0094
      2 C2          0.0021   -0.0041    0.0020 C.ar      1 <0>        -0.0628
      3 C3          1.2255   -0.6922   -0.0134 C.ar      1 <0>         0.0931
      4 C4          2.4146    0.0298   -0.0212 C.ar      1 <0>        -0.0951
      5 C5          2.3828    1.4078   -0.0139 C.ar      1 <0>        -0.0590
      6 C6          1.1713    2.0871    0.0021 C.ar      1 <0>        -0.1084
      7 Br1         1.1519    3.9779    0.0118 Br        1 <0>        -0.0436
      8 Br2         4.0033    2.3824   -0.0247 Br        1 <0>        -0.0426
      9 N1          0.9410   -2.0426   -0.0175 N.pl3     1 <0>        -0.5853
     10 H1          1.6065   -2.7482   -0.0272 H         1 <0>         0.4141
     11 C7         -0.3980   -2.2439   -0.0055 C.2       1 <0>         0.0889
     12 C8         -1.0452   -1.0425    0.0069 C.2       1 <0>        -0.1843
     13 C9         -2.4965   -0.8266    0.0225 C.2       1 <0>         0.5161
     14 O1         -2.9428    0.3045    0.0330 O.co2     1 <0>        -0.6305
     15 H2         -0.9579    1.9183    0.0170 H         1 <0>         0.1529
     16 H3          3.3618   -0.4890   -0.0334 H         1 <0>         0.1331
     17 H4         -0.8811   -3.2099   -0.0062 H         1 <0>         0.1843
     18 O2         -3.3352   -1.8824    0.0253 O.co2     1 <0>        -0.7616
@<TRIPOS>BOND
     1    1    6 ar
     2    1    2 ar
     3    1   15 1
     4    2   12 1
     5    2    3 ar
     6    3    4 ar
     7    3    9 1
     8    4    5 ar
     9    4   16 1
    10    5    6 ar
    11    5    8 1
    12    6    7 1
    13    9   10 1
    14    9   11 1
    15   11   12 2
    16   11   17 1
    17   12   13 1
    18   13   14 2
    19   13   18 1
@<TRIPOS>MOLECULE
ZINC34212553
   51    54     0     0     0
SMALL
USER_CHARGES

@<TRIPOS>ATOM
      1 C1         -0.0186    1.5229    0.0104 C.3       1 <0>        -0.1333
      2 C2          0.0021   -0.0041    0.0020 C.3       1 <0>        -0.0242
      3 C3         -1.3877   -0.5807    0.0009 C.3       1 <0>        -0.0969
      4 C4         -2.0141   -0.5562    1.4002 C.3       1 <0>        -0.1017
      5 C5         -1.1754    0.1958    2.4158 C.3       1 <0>        -0.0686
      6 H1         -1.1421    1.2574    2.1469 H         1 <0>         0.0858
      7 C6          0.2471   -0.3539    2.5019 C.3       1 <0>        -0.0655
      8 H2          0.1949   -1.3362    3.0130 H         1 <0>         0.0586
      9 C7          0.8346   -0.6067    1.1524 C.3       1 <0>        -0.0820
     10 H3          0.8803   -1.7089    1.0010 H         1 <0>         0.0565
     11 C8          2.2339   -0.0550    0.8506 C.3       1 <0>        -0.1117
     12 C9          2.3230   -0.1706   -0.6977 C.3       1 <0>        -0.1012
     13 C10         0.8788   -0.4232   -1.2014 C.3       1 <0>        -0.1536
     14 H4          0.7215   -1.4708   -1.4238 H         1 <0>         0.0585
     15 C11         0.5696    0.4487   -2.3848 C.2       1 <0>         0.5017
     16 O1          1.4361    0.6884   -3.2084 O.co2     1 <0>        -0.7062
     17 O2         -0.5478    0.9167   -2.5218 O.co2     1 <0>        -0.6930
     18 C12         1.0887    0.5626    3.3869 C.3       1 <0>        -0.1051
     19 C13         0.4906    0.5573    4.8016 C.3       1 <0>        -0.1252
     20 C14        -0.7656   -0.3005    4.8307 C.3       1 <0>         0.1478
     21 H5         -0.4852   -1.3308    4.5849 H         1 <0>         0.0713
     22 C15        -1.8006    0.1700    3.8132 C.3       1 <0>        -0.0648
     23 C16        -3.0002   -0.7734    3.8689 C.3       1 <0>        -0.1150
     24 C17        -3.6721   -0.6778    5.2389 C.3       1 <0>        -0.1358
     25 C18        -2.6729   -0.5408    6.3477 C.2       1 <0>         0.5234
     26 O3         -3.0766   -0.6096    7.4902 O.2       1 <0>        -0.5696
     27 N1         -1.3641   -0.3455    6.1591 N.am      1 <0>        -0.7143
     28 C19        -2.2581    1.5937    4.1507 C.3       1 <0>        -0.1435
     29 H6          0.9653    1.9011   -0.2670 H         1 <0>         0.0433
     30 H7         -0.7600    1.8801   -0.7043 H         1 <0>         0.0816
     31 H8         -0.2759    1.8773    1.0086 H         1 <0>         0.0351
     32 H9         -2.0234   -0.0115   -0.6921 H         1 <0>         0.0752
     33 H10        -1.3545   -1.6174   -0.3646 H         1 <0>         0.0469
     34 H11        -3.0082   -0.0940    1.3367 H         1 <0>         0.0565
     35 H12        -2.1558   -1.5904    1.7427 H         1 <0>         0.0520
     36 H13         2.3407    0.9754    1.1751 H         1 <0>         0.0630
     37 H14         2.9977   -0.6804    1.3189 H         1 <0>         0.0492
     38 H15         2.7095    0.7565   -1.1192 H         1 <0>         0.0657
     39 H16         2.9660   -1.0057   -0.9725 H         1 <0>         0.0474
     40 H17         2.1144    0.1971    3.4232 H         1 <0>         0.0688
     41 H18         1.0729    1.5759    2.9879 H         1 <0>         0.0692
     42 H19         1.2288    0.1339    5.4934 H         1 <0>         0.0634
     43 H20         0.2714    1.5755    5.1150 H         1 <0>         0.0703
     44 H21        -3.7212   -0.4963    3.0955 H         1 <0>         0.0844
     45 H22        -2.6683   -1.7996    3.6968 H         1 <0>         0.0714
     46 H23        -4.3546    0.1728    5.2565 H         1 <0>         0.0996
     47 H24        -4.2606   -1.5862    5.4073 H         1 <0>         0.0960
     48 H25        -0.7905   -0.2328    6.9296 H         1 <0>         0.3964
     49 H26        -2.9916    1.9236    3.4150 H         1 <0>         0.0622
     50 H27        -2.7085    1.6049    5.1432 H         1 <0>         0.0498
     51 H28        -1.3994    2.2649    4.1338 H         1 <0>         0.0603
@<TRIPOS>BOND
     1    1    2 1
     2    1   29 1
     3    1   30 1
     4    1   31 1
     5    2    9 1
     6    2   13 1
     7    2    3 1
     8    3    4 1
     9    3   32 1
    10    3   33 1
    11    4    5 1
    12    4   34 1
    13    4   35 1
    14    5    6 1
    15    5   22 1
    16    5    7 1
    17    7    8 1
    18    7    9 1
    19    7   18 1
    20    9   10 1
    21    9   11 1
    22   11   12 1
    23   11   36 1
    24   11   37 1
    25   12   13 1
    26   12   38 1
    27   12   39 1
    28   13   14 1
    29   13   15 1
    30   15   16 2
    31   15   17 1
    32   18   19 1
    33   18   40 1
    34   18   41 1
    35   19   20 1
    36   19   42 1
    37   19   43 1
    38   20   21 1
    39   20   27 1
    40   20   22 1
    41   22   23 1
    42   22   28 1
    43   23   24 1
    44   23   44 1
    45   23   45 1
    46   24   25 1
    47   24   46 1
    48   24   47 1
    49   25   26 2
    50   25   27 am
    51   27   48 1
    52   28   49 1
    53   28   50 1
    54   28   51 1
@<TRIPOS>MOLECULE
ZINC40603865
   33    34     0     0     0
SMALL
USER_CHARGES

@<TRIPOS>ATOM
      1 C1         -0.0361    1.5299    0.0195 C.3       1 <0>        -0.1625
      2 C2          0.0051    0.0005    0.0023 C.3       1 <0>         0.1521
      3 H1         -1.0095   -0.3976    0.0166 H         1 <0>         0.0720
      4 C3          0.7438   -0.4905   -1.2606 C.3       1 <0>        -0.1282
      5 C4          2.1818   -0.7548   -0.7413 C.3       1 <0>        -0.1295
      6 C5          1.9041   -1.2835    0.6880 C.3       1 <0>         0.0957
      7 N1          0.7523   -0.4927    1.1685 N.am      1 <0>        -0.6309
      8 C6          0.4385   -0.2598    2.4583 C.2       1 <0>         0.7196
      9 O1         -0.5373    0.4105    2.7351 O.2       1 <0>        -0.5840
     10 N2          1.2066   -0.7699    3.4414 N.am      1 <0>        -0.6556
     11 C7          0.9531   -0.4337    4.7677 C.ar      1 <0>         0.2300
     12 C8          0.3163    0.7604    5.0749 C.ar      1 <0>        -0.1690
     13 C9          0.0649    1.0940    6.3911 C.ar      1 <0>        -0.0742
     14 C10         0.4441    0.2438    7.4162 C.ar      1 <0>        -0.2041
     15 C11         1.0790   -0.9494    7.1335 C.ar      1 <0>         0.1535
     16 C12         1.3357   -1.3042    5.8022 C.ar      1 <0>        -0.2178
     17 C13         2.0054   -2.5746    5.4908 C.2       1 <0>         0.5305
     18 O2          2.3136   -2.8367    4.3359 O.co2     1 <0>        -0.6893
     19 O3          2.2548   -3.3704    6.3863 O.co2     1 <0>        -0.6649
     20 F1          1.4472   -1.7750    8.1375 F         1 <0>        -0.1212
     21 H2          0.9814    1.9207    0.0176 H         1 <0>         0.0536
     22 H3         -0.5649    1.8891   -0.8633 H         1 <0>         0.0599
     23 H4         -0.5540    1.8693    0.9165 H         1 <0>         0.0732
     24 H5          0.2947   -1.4095   -1.6372 H         1 <0>         0.0759
     25 H6          0.7474    0.2817   -2.0299 H         1 <0>         0.0821
     26 H7          2.6831   -1.5099   -1.3467 H         1 <0>         0.0836
     27 H8          2.7619    0.1676   -0.7109 H         1 <0>         0.0749
     28 H9          1.6490   -2.3428    0.6577 H         1 <0>         0.0731
     29 H10         2.7708   -1.1193    1.3283 H         1 <0>         0.0772
     30 H11         1.9359   -1.3714    3.2244 H         1 <0>         0.4270
     31 H12         0.0169    1.4306    4.2827 H         1 <0>         0.1461
     32 H13        -0.4308    2.0251    6.6227 H         1 <0>         0.1253
     33 H14         0.2426    0.5154    8.4419 H         1 <0>         0.1259
@<TRIPOS>BOND
     1    1    2 1
     2    1   21 1
     3    1   22 1
     4    1   23 1
     5    2    3 1
     6    2    7 1
     7    2    4 1
     8    4    5 1
     9    4   24 1
    10    4   25 1
    11    5    6 1
    12    5   26 1
    13    5   27 1
    14    6    7 1
    15    6   28 1
    16    6   29 1
    17    7    8 am
    18    8    9 2
    19    8   10 am
    20   10   11 1
    21   10   30 1
    22   11   16 ar
    23   11   12 ar
    24   12   13 ar
    25   12   31 1
    26   13   14 ar
    27   13   32 1
    28   14   15 ar
    29   14   33 1
    30   15   16 ar
    31   15   20 1
    32   16   17 1
    33   17   18 2
    34   17   19 1
@<TRIPOS>MOLECULE
ZINC61094801
   33    34     0     0     0
SMALL
USER_CHARGES

@<TRIPOS>ATOM
      1 C1          0.0378    1.3969    0.4507 C.ar      1 <0>        -0.1295
      2 C2          1.1724    2.0885    0.0501 C.ar      1 <0>         0.1731
      3 C3          2.3213    1.3903   -0.3029 C.ar      1 <0>         0.0751
      4 C4          2.3319    0.0080   -0.2544 C.ar      1 <0>        -0.1366
      5 C5          1.1993   -0.6801    0.1449 C.ar      1 <0>         0.0643
      6 C6          0.0523    0.0146    0.4980 C.ar      1 <0>         0.0902
      7 F1         -1.0519   -0.6592    0.8879 F         1 <0>        -0.1193
      8 F2          1.2115   -2.0303    0.1913 F         1 <0>        -0.1242
      9 F3          3.4268    2.0614   -0.6936 F         1 <0>        -0.1272
     10 N1          1.1595    3.4894    0.0011 N.am      1 <0>        -0.6795
     11 C7         -0.0124    4.1503   -0.0782 C.2       1 <0>         0.7050
     12 O1         -1.0603    3.5336   -0.0643 O.2       1 <0>        -0.5649
     13 N2         -0.0229    5.4946   -0.1728 N.am      1 <0>        -0.6130
     14 C8          1.2334    6.2461   -0.2981 C.3       1 <0>         0.1085
     15 C9          1.2780    7.3180    0.7954 C.3       1 <0>        -0.1356
     16 C10         0.0176    8.1818    0.7091 C.3       1 <0>        -0.0947
     17 C11        -1.2181    7.3086    0.9387 C.3       1 <0>        -0.1682
     18 H1         -1.1484    6.8292    1.9151 H         1 <0>         0.0671
     19 C12        -1.2912    6.2362   -0.1589 C.3       1 <0>         0.1520
     20 C13        -2.4565    8.1658    0.8864 C.2       1 <0>         0.4996
     21 O2         -3.5113    7.6901    0.5022 O.co2     1 <0>        -0.6937
     22 O3         -2.4035    9.3349    1.2282 O.co2     1 <0>        -0.6941
     23 H2         -0.8544    1.9378    0.7297 H         1 <0>         0.1972
     24 H3          3.2244   -0.5348   -0.5286 H         1 <0>         0.1612
     25 H4          1.9941    3.9832    0.0243 H         1 <0>         0.4131
     26 H5          2.0783    5.5678   -0.1795 H         1 <0>         0.0668
     27 H6          1.2786    6.7216   -1.2779 H         1 <0>         0.0750
     28 H7          1.3241    6.8385    1.7732 H         1 <0>         0.0631
     29 H8          2.1588    7.9446    0.6550 H         1 <0>         0.0719
     30 H9          0.0584    8.9608    1.4704 H         1 <0>         0.0728
     31 H10        -0.0408    8.6414   -0.2776 H         1 <0>         0.0574
     32 H11        -1.4477    6.7109   -1.1275 H         1 <0>         0.0669
     33 H12        -2.1126    5.5513    0.0517 H         1 <0>         0.1002
@<TRIPOS>BOND
     1    1    6 ar
     2    1    2 ar
     3    1   23 1
     4    2    3 ar
     5    2   10 1
     6    3    4 ar
     7    3    9 1
     8    4    5 ar
     9    4   24 1
    10    5    6 ar
    11    5    8 1
    12    6    7 1
    13   10   11 am
    14   10   25 1
    15   11   12 2
    16   11   13 am
    17   13   19 1
    18   13   14 1
    19   14   15 1
    20   14   26 1
    21   14   27 1
    22   15   16 1
    23   15   28 1
    24   15   29 1
    25   16   17 1
    26   16   30 1
    27   16   31 1
    28   17   18 1
    29   17   19 1
    30   17   20 1
    31   19   32 1
    32   19   33 1
    33   20   21 2
    34   20   22 1
@<TRIPOS>MOLECULE
ZINC62828031
   40    42     0     0     0
SMALL
USER_CHARGES

@<TRIPOS>ATOM
      1 C1         -0.0172    1.4427    0.0178 C.2       1 <0>        -0.0740
      2 C2          1.1843    2.0457    0.0106 C.2       1 <0>        -0.2881
      3 S1          2.3288    0.6836   -0.0104 S.3       1 <0>         0.1980
      4 C3          1.2557   -0.6061   -0.0095 C.2       1 <0>         0.0713
      5 C4          0.0023   -0.0039    0.0070 C.2       1 <0>        -0.2539
      6 C5         -1.1924   -0.7667    0.0134 C.2       1 <0>         0.5402
      7 O1         -2.2795   -0.2022    0.0280 O.co2     1 <0>        -0.6926
      8 O2         -1.1378   -1.9906    0.0043 O.co2     1 <0>        -0.7103
      9 N1          1.5503   -1.9588   -0.0232 N.am      1 <0>        -0.6149
     10 C6          2.8341   -2.3688   -0.0391 C.2       1 <0>         0.6974
     11 O3          3.7313   -1.5540   -0.1356 O.2       1 <0>        -0.5709
     12 N2          3.1234   -3.6820    0.0520 N.am      1 <0>        -0.6192
     13 C7          2.0537   -4.6895    0.0522 C.3       1 <0>         0.1017
     14 C8          2.2122   -5.5827    1.2862 C.3       1 <0>        -0.1343
     15 C9          3.6281   -6.1642    1.3157 C.3       1 <0>        -0.1143
     16 C10         4.6439   -5.0245    1.3970 C.3       1 <0>        -0.0969
     17 H1          4.4421   -4.4256    2.2852 H         1 <0>         0.0741
     18 C11         4.5186   -4.1414    0.1475 C.3       1 <0>         0.1670
     19 H2          5.1879   -3.2847    0.2268 H         1 <0>         0.1031
     20 C12         4.8486   -4.9638   -1.1007 C.3       1 <0>        -0.1305
     21 C13         6.2731   -5.5101   -0.9962 C.3       1 <0>        -0.1152
     22 C14         6.3821   -6.4087    0.2378 C.3       1 <0>        -0.1215
     23 C15         6.0600   -5.5885    1.4811 C.3       1 <0>        -0.1109
     24 H3         -0.9400    2.0035    0.0352 H         1 <0>         0.1365
     25 H4          1.4026    3.1034    0.0163 H         1 <0>         0.1731
     26 H5          0.8328   -2.6115   -0.0213 H         1 <0>         0.4302
     27 H6          1.0842   -4.1924    0.0837 H         1 <0>         0.0891
     28 H7          2.1248   -5.2973   -0.8498 H         1 <0>         0.0717
     29 H8          2.0430   -4.9921    2.1866 H         1 <0>         0.0686
     30 H9          1.4866   -6.3949    1.2426 H         1 <0>         0.0773
     31 H10         3.7373   -6.8113    2.1860 H         1 <0>         0.0640
     32 H11         3.8025   -6.7425    0.4084 H         1 <0>         0.0694
     33 H12         4.1471   -5.7939   -1.1839 H         1 <0>         0.0684
     34 H13         4.7668   -4.3308   -1.9842 H         1 <0>         0.0659
     35 H14         6.5071   -6.0891   -1.8896 H         1 <0>         0.0629
     36 H15         6.9749   -4.6810   -0.9055 H         1 <0>         0.0641
     37 H16         5.6727   -7.2318    0.1525 H         1 <0>         0.0644
     38 H17         7.3945   -6.8061    0.3104 H         1 <0>         0.0615
     39 H18         6.7721   -4.7681    1.5709 H         1 <0>         0.0647
     40 H19         6.1413   -6.2350    2.3548 H         1 <0>         0.0628
@<TRIPOS>BOND
     1    1    5 1
     2    1    2 2
     3    1   24 1
     4    2    3 1
     5    2   25 1
     6    3    4 1
     7    4    5 2
     8    4    9 1
     9    5    6 1
    10    6    7 2
    11    6    8 1
    12    9   10 am
    13    9   26 1
    14   10   11 2
    15   10   12 am
    16   12   18 1
    17   12   13 1
    18   13   14 1
    19   13   27 1
    20   13   28 1
    21   14   15 1
    22   14   29 1
    23   14   30 1
    24   15   16 1
    25   15   31 1
    26   15   32 1
    27   16   17 1
    28   16   23 1
    29   16   18 1
    30   18   19 1
    31   18   20 1
    32   20   21 1
    33   20   33 1
    34   20   34 1
    35   21   22 1
    36   21   35 1
    37   21   36 1
    38   22   23 1
    39   22   37 1
    40   22   38 1
    41   23   39 1
    42   23   40 1
@<TRIPOS>MOLECULE
ZINC04523119
   35    36     0     0     0
SMALL
USER_CHARGES
3-(4-amino-2-methyl-phenyl)azo-2-methyl-benzenesulfonic acid
@<TRIPOS>ATOM
      1 C1          3.5473   -4.7583   -0.0573 C.3       1 <0>        -0.1149
      2 C2          4.8380   -3.9805   -0.0659 C.ar      1 <0>         0.0218
      3 C3          6.0432   -4.6454   -0.0809 C.ar      1 <0>        -0.2088
      4 C4          7.2358   -3.9280   -0.0888 C.ar      1 <0>         0.2407
      5 C5          7.2151   -2.5360   -0.0816 C.ar      1 <0>        -0.2085
      6 C6          6.0142   -1.8640   -0.0715 C.ar      1 <0>        -0.0456
      7 C7          4.8130   -2.5817   -0.0581 C.ar      1 <0>        -0.0048
      8 N1          3.6204   -1.9191   -0.0432 N.2       1 <0>        -0.2252
      9 N2          3.5993   -0.6293   -0.0361 N.2       1 <0>        -0.2109
     10 C8          2.4042    0.0347   -0.0211 C.ar      1 <0>         0.0133
     11 C9          1.2035   -0.6806   -0.0135 C.ar      1 <0>        -0.0692
     12 C10         0.0021   -0.0041    0.0020 C.ar      1 <0>        -0.1612
     13 C11        -0.0167    1.3799    0.0096 C.ar      1 <0>         0.0063
     14 C12         1.1680    2.0947    0.0022 C.ar      1 <0>        -0.6715
     15 C13         2.3774    1.4317   -0.0129 C.ar      1 <0>         0.0654
     16 C14         3.6666    2.2120   -0.0205 C.3       1 <0>        -0.1259
     17 S1          1.1316    3.8563    0.0114 S.o2      1 <0>         2.6980
     18 O1          0.9902    4.2525    1.3687 O.2       1 <0>        -1.0534
     19 O2          2.2151    4.2892   -0.7997 O.2       1 <0>        -1.0476
     20 N3          8.4529   -4.6043   -0.1045 N.pl3     1 <0>        -0.8703
     21 H1          3.2259   -4.9403   -1.0828 H         1 <0>         0.0746
     22 H2          3.7004   -5.7109    0.4499 H         1 <0>         0.0648
     23 H3          2.7819   -4.1863    0.4672 H         1 <0>         0.0790
     24 H4          6.0634   -5.7252   -0.0869 H         1 <0>         0.1270
     25 H5          8.1426   -1.9828   -0.0878 H         1 <0>         0.1238
     26 H6          5.9989   -0.7841   -0.0701 H         1 <0>         0.1386
     27 H7          1.2167   -1.7605   -0.0202 H         1 <0>         0.1332
     28 H8         -0.9266   -0.5554    0.0079 H         1 <0>         0.1268
     29 H9         -0.9607    1.9044    0.0169 H         1 <0>         0.1395
     30 H10         3.9679    2.4060   -1.0499 H         1 <0>         0.0936
     31 H11         3.5215    3.1586    0.5001 H         1 <0>         0.0755
     32 H12         4.4430    1.6358    0.4828 H         1 <0>         0.0738
     33 H13         8.4688   -5.5741   -0.1098 H         1 <0>         0.3990
     34 H14         9.2848   -4.1055   -0.1100 H         1 <0>         0.3999
     35 O3         -0.1433    4.2838   -0.7016 O.3       1 <0>        -1.0769
@<TRIPOS>BOND
     1    1    2 1
     2    1   21 1
     3    1   22 1
     4    1   23 1
     5    2    7 ar
     6    2    3 ar
     7    3    4 ar
     8    3   24 1
     9    4    5 ar
    10    4   20 1
    11    5    6 ar
    12    5   25 1
    13    6    7 ar
    14    6   26 1
    15    7    8 1
    16    8    9 2
    17    9   10 1
    18   10   15 ar
    19   10   11 ar
    20   11   12 ar
    21   11   27 1
    22   12   13 ar
    23   12   28 1
    24   13   14 ar
    25   13   29 1
    26   14   15 ar
    27   14   17 1
    28   15   16 1
    29   16   30 1
    30   16   31 1
    31   16   32 1
    32   17   18 2
    33   17   19 2
    34   17   35 1
    35   20   33 1
    36   20   34 1
@<TRIPOS>MOLECULE
ZINC04301469
   29    32     0     0     0
SMALL
USER_CHARGES

@<TRIPOS>ATOM
      1 C1         -0.0187    1.5298    0.0105 C.3       1 <0>        -0.1086
      2 C2          1.4181    2.0671   -0.0004 C.3       1 <0>        -0.0043
      3 H1          1.4077    3.1398   -0.1935 H         1 <0>         0.0872
      4 C3          2.0717    1.7932    1.3606 C.3       1 <0>        -0.0320
      5 C4          1.8702    0.3370    1.6979 C.2       1 <0>        -0.2314
      6 H2          3.2471    0.3628    4.3036 H         1 <0>         0.3990
      7 C5          0.9512   -0.4629    1.1000 C.2       1 <0>         0.0956
      8 N1          1.0554   -1.6878    1.6428 N.pl3     1 <0>        -0.4540
      9 N2          2.0684   -1.6462    2.6122 N.2       1 <0>        -0.3022
     10 C6          2.5568   -0.4275    2.6444 C.2       1 <0>         0.2667
     11 O1          3.5549    0.0128    3.4563 O.3       1 <0>        -0.4587
     12 C7          0.0021   -0.0041    0.0020 C.3       1 <0>        -0.0154
     13 H3         -0.9978   -0.3860    0.2081 H         1 <0>         0.1031
     14 C8          0.4895   -0.4969   -1.3669 C.3       1 <0>        -0.0516
     15 C9          1.7724    0.2230   -1.7000 C.2       1 <0>         0.0982
     16 N3          2.6954   -0.1136   -2.6162 N.pl3     1 <0>        -0.4531
     17 N4          3.7186    0.8450   -2.5706 N.2       1 <0>        -0.3016
     18 C10         3.4108    1.7313   -1.6518 C.2       1 <0>         0.2722
     19 O2          4.1534    2.8176   -1.3082 O.3       1 <0>        -0.4574
     20 C11         2.1859    1.3624   -1.0894 C.2       1 <0>        -0.2345
     21 H4          3.9444    3.6135   -1.8160 H         1 <0>         0.3986
     22 H5         -0.5302    1.8805    0.9068 H         1 <0>         0.0797
     23 H6         -0.5472    1.8901   -0.8721 H         1 <0>         0.0796
     24 H7          3.1378    2.0140    1.3074 H         1 <0>         0.0799
     25 H8          1.6048    2.4153    2.1243 H         1 <0>         0.0734
     26 H9          0.5236   -2.4638    1.4062 H         1 <0>         0.4419
     27 H10         0.6704   -1.5710   -1.3275 H         1 <0>         0.0835
     28 H11        -0.2622   -0.2779   -2.1252 H         1 <0>         0.1031
     29 H12         2.6604   -0.8834   -3.2053 H         1 <0>         0.4430
@<TRIPOS>BOND
     1    1   12 1
     2    1    2 1
     3    1   22 1
     4    1   23 1
     5    2    3 1
     6    2   20 1
     7    2    4 1
     8    4    5 1
     9    4   24 1
    10    4   25 1
    11    5   10 1
    12    5    7 2
    13    6   11 1
    14    7   12 1
    15    7    8 1
    16    8    9 1
    17    8   26 1
    18    9   10 2
    19   10   11 1
    20   12   13 1
    21   12   14 1
    22   14   15 1
    23   14   27 1
    24   14   28 1
    25   15   16 1
    26   15   20 2
    27   16   17 1
    28   16   29 1
    29   17   18 2
    30   18   20 1
    31   18   19 1
    32   19   21 1
@<TRIPOS>MOLECULE
ZINC40582563
   33    33     0     0     0
SMALL
USER_CHARGES

@<TRIPOS>ATOM
      1 C1         -0.0198    1.5236    0.0084 C.3       1 <0>        -0.1383
      2 C2          0.0014   -0.0063    0.0014 C.3       1 <0>         0.0872
      3 H1         -1.0211   -0.3839    0.0098 H         1 <0>         0.0793
      4 C3          0.7066   -0.4932   -1.2381 C.2       1 <0>         0.4963
      5 O1          1.8015   -1.0222   -1.1486 O.co2     1 <0>        -0.6939
      6 O2          0.1824   -0.3582   -2.3306 O.co2     1 <0>        -0.6880
      7 N1          0.7103   -0.4902    1.1886 N.am      1 <0>        -0.7139
      8 C4          0.0512   -0.6335    2.3554 C.2       1 <0>         0.7017
      9 O3         -1.1069   -0.2748    2.4475 O.2       1 <0>        -0.6012
     10 N2          0.6758   -1.1742    3.4203 N.am      1 <0>        -0.6360
     11 C5          2.1061   -1.5050    3.3608 C.3       1 <0>         0.1087
     12 C6          2.2902   -2.9715    3.7637 C.3       1 <0>        -0.1338
     13 C7          1.6476   -3.2047    5.1329 C.3       1 <0>        -0.1095
     14 C8          0.1479   -2.9109    5.0511 C.3       1 <0>        -0.1061
     15 H2         -0.3085   -3.5546    4.2992 H         1 <0>         0.0825
     16 C9         -0.0592   -1.4385    4.6647 C.3       1 <0>         0.1425
     17 C10        -0.4995   -3.1766    6.4117 C.3       1 <0>         0.0846
     18 O4         -1.9153   -3.0149    6.3053 O.3       1 <0>        -0.5688
     19 H3          1.0026    1.9012    0.0001 H         1 <0>         0.0458
     20 H4         -0.5473    1.8837   -0.8748 H         1 <0>         0.0637
     21 H5         -0.5299    1.8758    0.9050 H         1 <0>         0.0480
     22 H6          1.6541   -0.7076    1.1349 H         1 <0>         0.3998
     23 H7          2.4737   -1.3561    2.3455 H         1 <0>         0.0858
     24 H8          2.6581   -0.8649    4.0490 H         1 <0>         0.0645
     25 H9          1.8137   -3.6146    3.0239 H         1 <0>         0.0706
     26 H10         3.3540   -3.2034    3.8168 H         1 <0>         0.0763
     27 H11         1.7987   -4.2416    5.4331 H         1 <0>         0.0645
     28 H12         2.1076   -2.5436    5.8673 H         1 <0>         0.0645
     29 H13         0.3198   -0.7931    5.4571 H         1 <0>         0.0563
     30 H14        -1.1208   -1.2458    4.5100 H         1 <0>         0.0981
     31 H15        -0.2729   -4.1944    6.7293 H         1 <0>         0.0461
     32 H16        -0.1073   -2.4716    7.1446 H         1 <0>         0.0459
     33 H17        -2.3920   -3.1684    7.1325 H         1 <0>         0.3767
@<TRIPOS>BOND
     1    1    2 1
     2    1   19 1
     3    1   20 1
     4    1   21 1
     5    2    3 1
     6    2    4 1
     7    2    7 1
     8    4    5 2
     9    4    6 1
    10    7    8 am
    11    7   22 1
    12    8    9 2
    13    8   10 am
    14   10   16 1
    15   10   11 1
    16   11   12 1
    17   11   23 1
    18   11   24 1
    19   12   13 1
    20   12   25 1
    21   12   26 1
    22   13   14 1
    23   13   27 1
    24   13   28 1
    25   14   15 1
    26   14   16 1
    27   14   17 1
    28   16   29 1
    29   16   30 1
    30   17   18 1
    31   17   31 1
    32   17   32 1
    33   18   33 1
@<TRIPOS>MOLECULE
ZINC44976032
   38    39     0     0     0
SMALL
USER_CHARGES

@<TRIPOS>ATOM
      1 C1         -0.0187    1.5267    0.0104 C.3       1 <0>        -0.1548
      2 C2          1.4212    2.0492   -0.0005 C.3       1 <0>        -0.1152
      3 C3          2.1715    1.4713    1.2034 C.3       1 <0>        -0.1342
      4 H1          1.7072    1.8227    2.1249 H         1 <0>         0.0861
      5 C4          2.1077   -0.0573    1.1489 C.3       1 <0>         0.0665
      6 O1          0.7413   -0.4753    1.1306 O.3       1 <0>        -0.3832
      7 C5          0.0021   -0.0041    0.0020 C.3       1 <0>         0.0586
      8 C6          3.6320    1.9252    1.1615 C.3       1 <0>         0.1492
      9 N1          4.3191    1.4721    2.3735 N.am      1 <0>        -0.7540
     10 C7          5.6234    1.7586    2.5557 C.2       1 <0>         0.7306
     11 O2          6.2299    2.3930    1.7142 O.2       1 <0>        -0.5722
     12 N2          6.2556    1.3418    3.6707 N.am      1 <0>        -0.6046
     13 C8          5.6459    0.5627    4.7637 C.3       1 <0>         0.0742
     14 C9          6.8325   -0.1693    5.4387 C.3       1 <0>         0.0892
     15 H2          7.1066   -1.0653    4.8818 H         1 <0>         0.0719
     16 C10         7.9503    0.9032    5.3517 C.3       1 <0>        -0.0964
     17 C11         7.6690    1.5834    3.9954 C.3       1 <0>         0.0845
     18 H3          8.3058    1.1519    3.2231 H         1 <0>         0.0699
     19 C12         7.9237    3.0646    4.1054 C.2       1 <0>         0.4969
     20 O3          6.9889    3.8471    4.0852 O.co2     1 <0>        -0.6757
     21 O4          9.0646    3.4805    4.2145 O.co2     1 <0>        -0.7010
     22 O5          6.5313   -0.4872    6.7990 O.3       1 <0>        -0.5548
     23 H4         -0.5273    1.8791    0.9078 H         1 <0>         0.0719
     24 H5         -0.5443    1.8887   -0.8732 H         1 <0>         0.0740
     25 H6          1.9149    1.7384   -0.9213 H         1 <0>         0.0679
     26 H7          1.4147    3.1373    0.0619 H         1 <0>         0.0736
     27 H8          2.6079   -0.4101    0.2470 H         1 <0>         0.0537
     28 H9          2.6033   -0.4733    2.0261 H         1 <0>         0.0926
     29 H10        -1.0191   -0.3817    0.0529 H         1 <0>         0.0915
     30 H11         0.4747   -0.3562   -0.9149 H         1 <0>         0.0496
     31 H12         4.1204    1.4978    0.2858 H         1 <0>         0.0632
     32 H13         3.6730    3.0130    1.1057 H         1 <0>         0.0689
     33 H14         3.8354    0.9660    3.0448 H         1 <0>         0.3881
     34 H15         5.1556    1.2270    5.4754 H         1 <0>         0.0710
     35 H16         4.9332   -0.1585    4.3637 H         1 <0>         0.0634
     36 H17         7.8641    1.6173    6.1707 H         1 <0>         0.0829
     37 H18         8.9346    0.4350    5.3489 H         1 <0>         0.0824
     38 H19         5.7745   -1.0795    6.9062 H         1 <0>         0.3735
@<TRIPOS>BOND
     1    1    7 1
     2    1    2 1
     3    1   23 1
     4    1   24 1
     5    2    3 1
     6    2   25 1
     7    2   26 1
     8    3    4 1
     9    3    5 1
    10    3    8 1
    11    5    6 1
    12    5   27 1
    13    5   28 1
    14    6    7 1
    15    7   29 1
    16    7   30 1
    17    8    9 1
    18    8   31 1
    19    8   32 1
    20    9   10 am
    21    9   33 1
    22   10   11 2
    23   10   12 am
    24   12   17 1
    25   12   13 1
    26   13   14 1
    27   13   34 1
    28   13   35 1
    29   14   15 1
    30   14   16 1
    31   14   22 1
    32   16   17 1
    33   16   36 1
    34   16   37 1
    35   17   18 1
    36   17   19 1
    37   19   20 2
    38   19   21 1
    39   22   38 1
@<TRIPOS>MOLECULE
ZINC17991309
   40    41     0     0     0
SMALL
USER_CHARGES

@<TRIPOS>ATOM
      1 C1         -0.3905    1.8279    0.4632 C.3       1 <0>        -0.1273
      2 C2         -0.4213    0.3021    0.3549 C.3       1 <0>        -0.1374
      3 H1         -0.0595   -0.0002   -0.6279 H         1 <0>         0.0758
      4 C3         -1.8569   -0.1949    0.5459 C.3       1 <0>        -0.0892
      5 C4         -1.8674   -1.7249    0.4884 C.3       1 <0>        -0.1319
      6 H2         -1.5246   -2.0544   -0.4924 H         1 <0>         0.0780
      7 C5         -0.9496   -2.2703    1.5510 C.2       1 <0>         0.3962
      8 O1         -1.1829   -3.3599    2.0505 O.3       1 <0>        -0.5782
      9 C6          0.1641   -1.5430    1.9695 C.2       1 <0>        -0.5017
     10 C7          1.0438   -2.1022    3.0080 C.2       1 <0>         0.2922
     11 C8          0.7375   -3.4495    3.6095 C.3       1 <0>        -0.1058
     12 C9          1.7098   -3.7285    4.7574 C.3       1 <0>        -0.1034
     13 C10         1.4360   -2.7577    5.9111 C.3       1 <0>        -0.1470
     14 C11         2.3193   -3.1143    7.0774 C.2       1 <0>         0.5277
     15 O2          2.6686   -2.2446    7.8462 O.2       1 <0>        -0.5057
     16 N1          2.7267   -4.3758    7.2824 N.am      1 <0>        -0.6768
     17 C12         2.3877   -5.3860    6.4674 C.2       1 <0>         0.5287
     18 O3          2.7969   -6.5025    6.7029 O.2       1 <0>        -0.5129
     19 C13         1.5084   -5.1599    5.2661 C.3       1 <0>        -0.1334
     20 N2          2.0818   -1.4361    3.4053 N.2       1 <0>        -0.7346
     21 C14         0.4599   -0.2954    1.4205 C.2       1 <0>         0.3958
     22 O4          1.4418    0.3186    1.8076 O.2       1 <0>        -0.5198
     23 C15        -3.2894   -2.2351    0.7302 C.3       1 <0>        -0.1271
     24 H3          0.6317    2.1812    0.3282 H         1 <0>         0.0580
     25 H4         -1.0290    2.2598   -0.3074 H         1 <0>         0.0420
     26 H5         -0.7524    2.1297    1.4461 H         1 <0>         0.0489
     27 H6         -2.2316    0.1362    1.5145 H         1 <0>         0.0605
     28 H7         -2.4895    0.2042   -0.2470 H         1 <0>         0.0530
     29 H8         -0.2841   -3.4540    3.9895 H         1 <0>         0.0927
     30 H9          2.7346   -3.6053    4.4072 H         1 <0>         0.0808
     31 H10         1.6517   -1.7390    5.5889 H         1 <0>         0.1260
     32 H11         0.3904   -2.8325    6.2098 H         1 <0>         0.1123
     33 H12         3.2889   -4.5650    8.0499 H         1 <0>         0.4072
     34 H13         0.4648   -5.3035    5.5463 H         1 <0>         0.1143
     35 H14         1.7761   -5.8666    4.4806 H         1 <0>         0.1145
     36 H15         2.7072   -1.8387    4.0280 H         1 <0>         0.2940
     37 H16         0.8449   -4.2208    2.8468 H         1 <0>         0.0832
     38 H17        -3.9533   -1.8383   -0.0378 H         1 <0>         0.0430
     39 H18        -3.2965   -3.3243    0.6892 H         1 <0>         0.0582
     40 H19        -3.6315   -1.9062    1.7115 H         1 <0>         0.0490
@<TRIPOS>BOND
     1    1    2 1
     2    1   24 1
     3    1   25 1
     4    1   26 1
     5    2    3 1
     6    2   21 1
     7    2    4 1
     8    4    5 1
     9    4   27 1
    10    4   28 1
    11    5    6 1
    12    5    7 1
    13    5   23 1
    14    7    8 1
    15    7    9 2
    16    9   21 1
    17    9   10 1
    18   10   11 1
    19   10   20 2
    20   11   12 1
    21   11   29 1
    22   11   37 1
    23   12   19 1
    24   12   13 1
    25   12   30 1
    26   13   14 1
    27   13   31 1
    28   13   32 1
    29   14   15 2
    30   14   16 am
    31   16   17 am
    32   16   33 1
    33   17   18 2
    34   17   19 1
    35   19   34 1
    36   19   35 1
    37   20   36 1
    38   21   22 2
    39   23   38 1
    40   23   39 1
    41   23   40 1
@<TRIPOS>MOLECULE
ZINC04623284
   37    40     0     0     0
SMALL
USER_CHARGES
chloro-(2-pyridyl)BLAHcarboxylic acid
@<TRIPOS>ATOM
      1 C1          1.8837    3.9768    0.3963 C.ar      1 <0>        -0.0785
      2 C2          0.7543    4.7806    0.4336 C.ar      1 <0>        -0.1778
      3 C3         -0.4927    4.1951    0.3265 C.ar      1 <0>         0.0956
      4 N1         -0.6151    2.8895    0.1851 N.ar      1 <0>        -0.4750
      5 C4          0.4360    2.0943    0.1507 C.ar      1 <0>         0.1411
      6 C5          1.7152    2.6084    0.2520 C.ar      1 <0>        -0.1439
      7 C6          0.2409    0.6083   -0.0070 C.3       1 <0>         0.1605
      8 H1         -0.1821    0.3914   -0.9879 H         1 <0>         0.1083
      9 C7         -0.6798    0.0904    1.0784 C.3       1 <0>        -0.1231
     10 H2         -0.7318   -0.9984    1.0708 H         1 <0>         0.0868
     11 C8         -2.0722    0.7198    1.2013 C.3       1 <0>        -0.0904
     12 C9         -2.3487    0.5569    2.6982 C.2       1 <0>        -0.2105
     13 C10        -1.2021    0.5050    3.3674 C.2       1 <0>        -0.1193
     14 C11        -0.0859    0.6629    2.4032 C.3       1 <0>        -0.0164
     15 H3          0.0878    1.7288    2.2557 H         1 <0>         0.0873
     16 C12         1.2311    0.0177    2.5930 C.ar      1 <0>        -0.0797
     17 C13         1.7314   -0.2687    3.8618 C.ar      1 <0>        -0.0629
     18 C14         2.9855   -0.8650    4.0041 C.ar      1 <0>        -0.1043
     19 C15         3.7247   -1.1677    2.8790 C.ar      1 <0>        -0.1007
     20 C16         3.2288   -0.8899    1.6223 C.ar      1 <0>        -0.0710
     21 C17         1.9716   -0.2993    1.4555 C.ar      1 <0>         0.1266
     22 N2          1.5287   -0.0862    0.1505 N.pl3     1 <0>        -0.6375
     23 Cl1         4.1804   -1.2804    0.2239 Cl        1 <0>        -0.0834
     24 C18         0.9328    0.0605    5.0596 C.2       1 <0>         0.4983
     25 O1          0.5289    1.1938    5.2277 O.co2     1 <0>        -0.6189
     26 H4          2.8711    4.4066    0.4781 H         1 <0>         0.1306
     27 H5          0.8481    5.8507    0.5454 H         1 <0>         0.1305
     28 H6         -1.3773    4.8141    0.3546 H         1 <0>         0.1540
     29 H7          2.5724    1.9524    0.2186 H         1 <0>         0.1456
     30 H8         -2.0517    1.7726    0.9197 H         1 <0>         0.1152
     31 H9         -2.8031    0.1718    0.6067 H         1 <0>         0.0575
     32 H10        -3.3303    0.4933    3.1441 H         1 <0>         0.1204
     33 H11        -1.0999    0.3704    4.4341 H         1 <0>         0.1556
     34 H12         3.3740   -1.0876    4.9868 H         1 <0>         0.1313
     35 H13         4.6978   -1.6246    2.9831 H         1 <0>         0.1286
     36 H14         1.5446   -0.9436   -0.3813 H         1 <0>         0.3674
     37 O2          0.6521   -0.8960    5.9658 O.co2     1 <0>        -0.7479
@<TRIPOS>BOND
     1    1    6 ar
     2    1    2 ar
     3    1   26 1
     4    2    3 ar
     5    2   27 1
     6    3    4 ar
     7    3   28 1
     8    4    5 ar
     9    5    6 ar
    10    5    7 1
    11    6   29 1
    12    7    8 1
    13    7   22 1
    14    7    9 1
    15    9   10 1
    16    9   14 1
    17    9   11 1
    18   11   12 1
    19   11   30 1
    20   11   31 1
    21   12   13 2
    22   12   32 1
    23   13   14 1
    24   13   33 1
    25   14   15 1
    26   14   16 1
    27   16   21 ar
    28   16   17 ar
    29   17   18 ar
    30   17   24 1
    31   18   19 ar
    32   18   34 1
    33   19   20 ar
    34   19   35 1
    35   20   21 ar
    36   20   23 1
    37   21   22 1
    38   22   36 1
    39   24   25 2
    40   24   37 1
@<TRIPOS>MOLECULE
ZINC20427116
   33    35     0     0     0
SMALL
USER_CHARGES
(7R)-7-(4-chlorophenyl)-2,5-dimethyl-4,7-dihydro-[1,2,4]triazolo[1,5-a]pyrimidine-6-carboxylic acid
@<TRIPOS>ATOM
      1 C1          4.7027    2.3504   -0.3364 C.3       1 <0>        -0.0541
      2 C2          3.2094    2.3814   -0.1360 C.2       1 <0>         0.2230
      3 N1          2.3933    1.3266   -0.2294 N.2       1 <0>        -0.5683
      4 C3          1.1652    1.7030    0.0001 C.2       1 <0>         0.5036
      5 N2          1.1766    3.0349    0.2556 N.pl3     1 <0>        -0.3888
      6 N3          2.5048    3.4464    0.1578 N.2       1 <0>        -0.3088
      7 C4         -0.0220    3.8079    0.5691 C.3       1 <0>         0.2769
      8 H1         -0.0128    4.7124   -0.0569 H         1 <0>         0.1079
      9 C5         -1.2439    2.9804    0.2717 C.2       1 <0>        -0.2554
     10 C6         -1.1934    1.6627    0.0166 C.2       1 <0>         0.1749
     11 N4         -0.0111    0.9658    0.0074 N.pl3     1 <0>        -0.6344
     12 C7         -2.4765    0.9237   -0.2634 C.3       1 <0>        -0.0821
     13 C8         -2.5030    3.6208    0.2556 C.2       1 <0>         0.5013
     14 O1         -3.5093    2.9787    0.0184 O.co2     1 <0>        -0.6338
     15 O2         -2.5900    4.9447    0.5034 O.co2     1 <0>        -0.7557
     16 C9         -0.0112    4.1818    2.0289 C.ar      1 <0>        -0.0576
     17 C10         0.0053    3.1933    2.9952 C.ar      1 <0>        -0.0864
     18 C11         0.0209    3.5356    4.3342 C.ar      1 <0>        -0.1178
     19 C12         0.0085    4.8678    4.7075 C.ar      1 <0>        -0.0321
     20 C13        -0.0137    5.8565    3.7401 C.ar      1 <0>        -0.1138
     21 C14        -0.0235    5.5130    2.4013 C.ar      1 <0>        -0.0560
     22 Cl1         0.0204    5.2984    6.3892 Cl        1 <0>        -0.0844
     23 H2          5.0197    1.3239   -0.5724 H         1 <0>         0.0836
     24 H3          5.2032    2.6863    0.5838 H         1 <0>         0.0799
     25 H4          4.9751    3.0184   -1.1668 H         1 <0>         0.0802
     26 H5          0.0287   -0.1335    0.0057 H         1 <0>         0.4538
     27 H6         -2.2552   -0.1375   -0.4500 H         1 <0>         0.0366
     28 H7         -2.9639    1.3578   -1.1488 H         1 <0>         0.0982
     29 H8         -3.1470    1.0114    0.6042 H         1 <0>         0.0969
     30 H9          0.0105    2.1534    2.7037 H         1 <0>         0.1169
     31 H10         0.0382    2.7633    5.0890 H         1 <0>         0.1280
     32 H11        -0.0237    6.8966    4.0309 H         1 <0>         0.1323
     33 H12        -0.0412    6.2848    1.6461 H         1 <0>         0.1353
@<TRIPOS>BOND
     1    1    2 1
     2    1   23 1
     3    1   24 1
     4    1   25 1
     5    2    6 2
     6    2    3 1
     7    3    4 2
     8    4   11 1
     9    4    5 1
    10    5    6 1
    11    5    7 1
    12    7    8 1
    13    7    9 1
    14    7   16 1
    15    9   10 2
    16    9   13 1
    17   10   11 1
    18   10   12 1
    19   11   26 1
    20   12   27 1
    21   12   28 1
    22   12   29 1
    23   13   14 2
    24   13   15 1
    25   16   21 ar
    26   16   17 ar
    27   17   18 ar
    28   17   30 1
    29   18   19 ar
    30   18   31 1
    31   19   20 ar
    32   19   22 1
    33   20   21 ar
    34   20   32 1
    35   21   33 1
@<TRIPOS>MOLECULE
ZINC09484196
   34    38     0     0     0
SMALL
USER_CHARGES

@<TRIPOS>ATOM
      1 C1         -0.0168    1.3896    0.0097 C.ar      1 <0>        -0.0689
      2 C2          1.1687    2.0939    0.0021 C.ar      1 <0>        -0.1488
      3 C3          2.3803    1.4161   -0.0135 C.ar      1 <0>         0.1085
      4 C4          2.4022    0.0279   -0.0212 C.ar      1 <0>        -0.1507
      5 C5          1.2199   -0.6817   -0.0137 C.ar      1 <0>        -0.0611
      6 C6          0.0021   -0.0041    0.0020 C.ar      1 <0>        -0.0050
      7 C7         -1.2717   -0.7647    0.0101 C.2       1 <0>         0.2590
      8 N1         -1.3767   -2.0981    0.0093 N.2       1 <0>        -0.5474
      9 C8         -2.6496   -2.4383    0.0180 C.2       1 <0>         0.3639
     10 C9         -3.3525   -3.7357    0.0221 C.2       1 <0>        -0.2487
     11 C10        -2.7785   -5.0885    0.0166 C.2       1 <0>        -0.0426
     12 C11        -3.6454   -6.1165    0.0217 C.2       1 <0>        -0.2484
     13 S1         -5.2541   -5.3596    0.0370 S.3       1 <0>         0.1144
     14 C12        -4.7513   -3.6591    0.0332 C.2       1 <0>         0.1865
     15 N2         -5.3951   -2.4965    0.0384 N.2       1 <0>        -0.5532
     16 C13        -4.7576   -1.3509    0.0341 C.2       1 <0>         0.6344
     17 N3         -3.3952   -1.2932    0.0245 N.pl3     1 <0>        -0.3507
     18 N4         -2.4778   -0.2325    0.0249 N.2       1 <0>        -0.2983
     19 O1         -5.4674   -0.2001    0.0396 O.3       1 <0>        -0.6202
     20 C14        -2.9463   -7.4493    0.0103 C.3       1 <0>        -0.0188
     21 C15        -1.5040   -7.1266   -0.4383 C.3       1 <0>        -0.1167
     22 C16        -1.3574   -5.6589    0.0090 C.3       1 <0>        -0.0613
     23 O2          3.5467    2.1127   -0.0218 O.3       1 <0>        -0.5005
     24 H1         -0.9590    1.9173    0.0260 H         1 <0>         0.1379
     25 H2          1.1547    3.1738    0.0081 H         1 <0>         0.1319
     26 H3          3.3462   -0.4967   -0.0334 H         1 <0>         0.1318
     27 H4          1.2376   -1.7616   -0.0204 H         1 <0>         0.1407
     28 H5         -2.9452   -7.8868    1.0087 H         1 <0>         0.0746
     29 H6         -3.4240   -8.1233   -0.7007 H         1 <0>         0.0700
     30 H7         -0.7841   -7.7645    0.0744 H         1 <0>         0.0766
     31 H8         -1.4024   -7.2169   -1.5198 H         1 <0>         0.0720
     32 H9         -0.7346   -5.1100   -0.6973 H         1 <0>         0.0745
     33 H10        -0.9266   -5.6109    1.0091 H         1 <0>         0.0758
     34 H11         3.8934    2.3099    0.8591 H         1 <0>         0.3887
@<TRIPOS>BOND
     1    1    6 ar
     2    1    2 ar
     3    1   24 1
     4    2    3 ar
     5    2   25 1
     6    3    4 ar
     7    3   23 1
     8    4    5 ar
     9    4   26 1
    10    5    6 ar
    11    5   27 1
    12    6    7 1
    13    7   18 2
    14    7    8 1
    15    8    9 2
    16    9   17 1
    17    9   10 1
    18   10   14 2
    19   10   11 1
    20   11   22 1
    21   11   12 2
    22   12   13 1
    23   12   20 1
    24   13   14 1
    25   14   15 1
    26   15   16 2
    27   16   17 1
    28   16   19 1
    29   17   18 1
    30   20   21 1
    31   20   28 1
    32   20   29 1
    33   21   22 1
    34   21   30 1
    35   21   31 1
    36   22   32 1
    37   22   33 1
    38   23   34 1
@<TRIPOS>MOLECULE
ZINC39887143
   37    39     0     0     0
SMALL
USER_CHARGES

@<TRIPOS>ATOM
      1 C1         -2.3654   -1.3576   -1.6395 C.3       1 <0>        -0.1092
      2 C2         -1.1219   -1.3744   -0.7884 C.ar      1 <0>        -0.0833
      3 C3          0.0063   -0.6886   -1.2002 C.ar      1 <0>        -0.1243
      4 C4          1.1493   -0.7015   -0.4222 C.ar      1 <0>        -0.1075
      5 C5          1.1677   -1.3998    0.7693 C.ar      1 <0>        -0.1096
      6 C6          0.0364   -2.0892    1.1859 C.ar      1 <0>         0.1774
      7 C7         -1.1120   -2.0699    0.4045 C.ar      1 <0>        -0.1057
      8 N1          0.0516   -2.7971    2.3916 N.pl3     1 <0>        -0.5712
      9 C8         -0.0329   -4.2614    2.3985 C.3       1 <0>         0.4689
     10 H1          0.1478   -4.6396    1.3923 H         1 <0>         0.1224
     11 N2          0.9703   -4.8106    3.3125 N.am      1 <0>        -0.7342
     12 C9          1.3568   -4.1189    4.4029 C.2       1 <0>         0.6003
     13 O1          2.1602   -4.6010    5.1809 O.2       1 <0>        -0.5603
     14 C10         0.8053   -2.7840    4.6467 C.2       1 <0>        -0.3211
     15 C11         0.1517   -2.1343    3.5897 C.2       1 <0>         0.4491
     16 S1         -0.5237   -0.5202    3.7971 S.3       1 <0>        -0.7766
     17 C12         0.9345   -2.1583    5.9282 C.1       1 <0>         0.3379
     18 N3          1.0370   -1.6619    6.9449 N.1       1 <0>        -0.4955
     19 C13        -1.4068   -4.6820    2.8528 C.2       1 <0>        -0.0468
     20 C14        -1.7038   -5.8139    3.5161 C.2       1 <0>        -0.1814
     21 C15        -3.0998   -5.8033    3.7400 C.2       1 <0>        -0.2177
     22 C16        -3.5723   -4.6655    3.2001 C.2       1 <0>        -0.0076
     23 O2         -2.5416   -3.9875    2.6693 O.3       1 <0>        -0.1509
     24 C17        -5.0131   -4.2237    3.1965 C.3       1 <0>        -0.0723
     25 H2         -2.9912   -0.5127   -1.3519 H         1 <0>         0.0688
     26 H3         -2.0863   -1.2623   -2.6889 H         1 <0>         0.0630
     27 H4         -2.9183   -2.2856   -1.4935 H         1 <0>         0.0630
     28 H5         -0.0053   -0.1420   -2.1316 H         1 <0>         0.1184
     29 H6          2.0288   -0.1652   -0.7468 H         1 <0>         0.1219
     30 H7          2.0610   -1.4101    1.3762 H         1 <0>         0.1209
     31 H8         -1.9948   -2.6015    0.7276 H         1 <0>         0.1252
     32 H9          1.3602   -5.6802    3.1318 H         1 <0>         0.4062
     33 H10        -1.0093   -6.5835    3.8190 H         1 <0>         0.1462
     34 H11        -3.6761   -6.5630    4.2468 H         1 <0>         0.1450
     35 H12        -5.2140   -3.6321    4.0897 H         1 <0>         0.0810
     36 H13        -5.2058   -3.6197    2.3098 H         1 <0>         0.0748
     37 H14        -5.6617   -5.0997    3.1874 H         1 <0>         0.0849
@<TRIPOS>BOND
     1    1    2 1
     2    1   25 1
     3    1   26 1
     4    1   27 1
     5    2    7 ar
     6    2    3 ar
     7    3    4 ar
     8    3   28 1
     9    4    5 ar
    10    4   29 1
    11    5    6 ar
    12    5   30 1
    13    6    7 ar
    14    6    8 1
    15    7   31 1
    16    8   15 1
    17    8    9 1
    18    9   10 1
    19    9   11 1
    20    9   19 1
    21   11   12 am
    22   11   32 1
    23   12   13 2
    24   12   14 1
    25   14   15 2
    26   14   17 1
    27   15   16 1
    28   17   18 3
    29   19   23 1
    30   19   20 2
    31   20   21 1
    32   20   33 1
    33   21   22 2
    34   21   34 1
    35   22   23 1
    36   22   24 1
    37   24   35 1
    38   24   36 1
    39   24   37 1
@<TRIPOS>MOLECULE
ZINC04973633
   29    32     0     0     0
SMALL
USER_CHARGES

@<TRIPOS>ATOM
      1 C1         -0.0189    1.5390    0.0105 C.3       1 <0>        -0.1172
      2 C2          1.4833    1.8922   -0.0019 C.3       1 <0>        -0.0784
      3 C3          2.1749    0.7067    0.6379 C.ar      1 <0>        -0.1307
      4 C4          1.3216   -0.3865    0.6389 C.ar      1 <0>         0.1572
      5 N1          1.7189   -1.5390    1.1504 N.ar      1 <0>        -0.4306
      6 C5          2.9180   -1.6879    1.6695 C.ar      1 <0>         0.1154
      7 C6          3.8554   -0.6391    1.7188 C.ar      1 <0>        -0.0972
      8 C7          3.4414    0.5971    1.1727 C.ar      1 <0>        -0.0597
      9 C8          4.3731    1.7815    1.1746 C.3       1 <0>         0.4980
     10 F1          4.1953    2.5129    2.3539 F         1 <0>        -0.1758
     11 F2          5.6964    1.3340    1.0985 F         1 <0>        -0.1178
     12 F3          4.0926    2.5973    0.0732 F         1 <0>        -0.1880
     13 C9          5.1537   -0.9623    2.3360 C.2       1 <0>         0.2508
     14 C10         5.3032   -2.2688    2.7957 C.2       1 <0>        -0.3994
     15 S1          3.7608   -3.0583    2.4223 S.3       1 <0>         0.1555
     16 C11         6.4904   -2.6956    3.4003 C.2       1 <0>         0.5949
     17 N2          7.4990   -1.8019    3.5305 N.am      1 <0>        -0.6550
     18 C12         7.3248   -0.5317    3.0723 C.2       1 <0>         0.6149
     19 O1          8.3390    0.3499    3.2078 O.3       1 <0>        -0.6569
     20 N3          6.2198   -0.1308    2.5075 N.2       1 <0>        -0.5813
     21 O2          6.6134   -3.8416    3.7995 O.2       1 <0>        -0.5716
     22 C13         0.0021   -0.0041    0.0020 C.3       1 <0>        -0.0656
     23 H1         -0.4976    1.9148    0.9148 H         1 <0>         0.0786
     24 H2         -0.5147    1.9244   -0.8804 H         1 <0>         0.0872
     25 H3          1.8319    2.0259   -1.0260 H         1 <0>         0.0929
     26 H4          1.6643    2.7954    0.5809 H         1 <0>         0.0833
     27 H5         -0.8287   -0.3967    0.5883 H         1 <0>         0.0918
     28 H6         -0.0463   -0.3773   -1.0210 H         1 <0>         0.0965
     29 H7          8.3357   -2.0633    3.9458 H         1 <0>         0.4081
@<TRIPOS>BOND
     1    1   22 1
     2    1    2 1
     3    1   23 1
     4    1   24 1
     5    2    3 1
     6    2   25 1
     7    2   26 1
     8    3    8 ar
     9    3    4 ar
    10    4    5 ar
    11    4   22 1
    12    5    6 ar
    13    6   15 1
    14    6    7 ar
    15    7    8 ar
    16    7   13 1
    17    8    9 1
    18    9   10 1
    19    9   11 1
    20    9   12 1
    21   13   20 1
    22   13   14 2
    23   14   15 1
    24   14   16 1
    25   16   17 am
    26   16   21 2
    27   17   18 1
    28   17   29 1
    29   18   19 1
    30   18   20 2
    31   22   27 1
    32   22   28 1
@<TRIPOS>MOLECULE
ZINC65351616
   26    27     0     0     0
SMALL
USER_CHARGES

@<TRIPOS>ATOM
      1 C1         -0.0168    1.3902    0.0097 C.ar      1 <0>        -0.0709
      2 C2          1.1671    2.1012    0.0022 C.ar      1 <0>        -0.1014
      3 C3          2.3784    1.4367   -0.0129 C.ar      1 <0>        -0.0051
      4 C4          2.4102    0.0386   -0.0211 C.ar      1 <0>        -0.0182
      5 C5          1.2163   -0.6816   -0.0136 C.ar      1 <0>        -0.0592
      6 C6          0.0021   -0.0041    0.0020 C.ar      1 <0>        -0.0152
      7 C7         -1.2727   -0.7643    0.0105 C.ar      1 <0>        -0.0699
      8 C8         -2.4870   -0.0862    0.0204 C.ar      1 <0>        -0.0706
      9 C9         -3.6829   -0.8046    0.0279 C.ar      1 <0>        -0.1168
     10 C10        -3.6552   -2.2016    0.0255 C.ar      1 <0>        -0.0943
     11 C11        -2.4426   -2.8706    0.0161 C.ar      1 <0>         0.0835
     12 C12        -1.2534   -2.1576    0.0029 C.ar      1 <0>        -0.1356
     13 O1         -2.4182   -4.2295    0.0143 O.3       1 <0>        -0.4999
     14 C13        -4.9744   -0.0906    0.0388 C.2       1 <0>         0.5206
     15 O2         -4.9971    1.1320    0.0413 O.co2     1 <0>        -0.6819
     16 O3         -6.0219   -0.7217    0.0454 O.co2     1 <0>        -0.6813
     17 C14         3.6651   -0.6511   -0.0377 C.1       1 <0>         0.2560
     18 N1          4.6605   -1.1983   -0.0509 N.1       1 <0>        -0.4054
     19 Cl1         3.8621    2.3380   -0.0222 Cl        1 <0>        -0.0583
     20 H1         -0.9602    1.9157    0.0260 H         1 <0>         0.1516
     21 H2          1.1461    3.1810    0.0078 H         1 <0>         0.1475
     22 H3          1.2345   -1.7615   -0.0202 H         1 <0>         0.1444
     23 H4         -2.5041    0.9937    0.0226 H         1 <0>         0.1364
     24 H5         -4.5796   -2.7599    0.0313 H         1 <0>         0.1360
     25 H6         -0.3101   -2.6833   -0.0093 H         1 <0>         0.1243
     26 H7         -2.4173   -4.6217   -0.8696 H         1 <0>         0.3838
@<TRIPOS>BOND
     1    1    6 ar
     2    1    2 ar
     3    1   20 1
     4    2    3 ar
     5    2   21 1
     6    3    4 ar
     7    3   19 1
     8    4    5 ar
     9    4   17 1
    10    5    6 ar
    11    5   22 1
    12    6    7 1
    13    7   12 ar
    14    7    8 ar
    15    8    9 ar
    16    8   23 1
    17    9   10 ar
    18    9   14 1
    19   10   11 ar
    20   10   24 1
    21   11   12 ar
    22   11   13 1
    23   12   25 1
    24   13   26 1
    25   14   15 2
    26   14   16 1
    27   17   18 3
@<TRIPOS>MOLECULE
ZINC19657383
   43    47     0     0     0
SMALL
USER_CHARGES
N-[4-(6,7,8,9-tetrahydroimidazo[1,2-b][1,2,4]benzotriazin-2-yl)phenyl]thiazole-4-carboxamide
@<TRIPOS>ATOM
      1 C1          5.1576    7.3788   -1.2871 C.ar      1 <0>        -0.0788
      2 C2          6.0305    8.4264   -1.4901 C.ar      1 <0>        -0.1439
      3 C3          7.3642    8.3030   -1.1189 C.ar      1 <0>         0.1624
      4 C4          7.8200    7.1252   -0.5383 C.ar      1 <0>        -0.1244
      5 C5          6.9496    6.0768   -0.3290 C.ar      1 <0>        -0.0616
      6 C6          5.6114    6.1986   -0.7001 C.ar      1 <0>        -0.0326
      7 C7          4.6730    5.0717   -0.4764 C.2       1 <0>         0.1076
      8 C8          3.3455    5.0625   -0.7923 C.2       1 <0>        -0.0042
      9 N1          2.8560    3.8473   -0.4238 N.pl3     1 <0>        -0.3048
     10 C9          3.8987    3.1289    0.1134 C.2       1 <0>         0.3287
     11 N2          4.9841    3.8870    0.0720 N.2       1 <0>        -0.4275
     12 N3          3.6814    1.8878    0.5560 N.2       1 <0>        -0.3860
     13 C10         2.4867    1.3325    0.4907 C.2       1 <0>         0.1531
     14 C11         1.4080    2.0398   -0.0452 C.2       1 <0>         0.1269
     15 N4          1.5873    3.2646   -0.4938 N.2       1 <0>        -0.2285
     16 C12         0.0222    1.4572   -0.1346 C.3       1 <0>        -0.0650
     17 C13         0.0705   -0.0627    0.0105 C.3       1 <0>        -0.1243
     18 C14         0.8755   -0.4043    1.2695 C.3       1 <0>        -0.1253
     19 C15         2.3442   -0.0757    1.0097 C.3       1 <0>        -0.0691
     20 N5          8.2485    9.3646   -1.3301 N.am      1 <0>        -0.6702
     21 C16         9.5389    9.1173   -1.6304 C.2       1 <0>         0.5950
     22 O1          9.9128    7.9741   -1.8121 O.2       1 <0>        -0.5156
     23 C17        10.4962   10.2308   -1.7384 C.2       1 <0>        -0.0137
     24 C18        11.8163   10.0075   -2.0376 C.2       1 <0>        -0.1635
     25 S1         12.4495   11.6229   -2.0371 S.3       1 <0>         0.1433
     26 C19        10.9842   12.4636   -1.6459 C.2       1 <0>         0.0491
     27 N6         10.1131   11.4935   -1.5436 N.2       1 <0>        -0.4823
     28 H1          4.1223    7.4737   -1.5795 H         1 <0>         0.1304
     29 H2          5.6787    9.3422   -1.9417 H         1 <0>         0.1320
     30 H3          8.8568    7.0315   -0.2506 H         1 <0>         0.1375
     31 H4          7.3043    5.1617    0.1218 H         1 <0>         0.1370
     32 H5          2.7886    5.8675   -1.2486 H         1 <0>         0.1955
     33 H6         -0.6030    1.8732    0.6692 H         1 <0>         0.1046
     34 H7         -0.4193    1.7092   -1.1101 H         1 <0>         0.1012
     35 H8         -0.9532   -0.4551    0.1008 H         1 <0>         0.0896
     36 H9          0.5541   -0.5004   -0.8752 H         1 <0>         0.0755
     37 H10         0.5019    0.1903    2.1161 H         1 <0>         0.0741
     38 H11         0.7648   -1.4750    1.4962 H         1 <0>         0.0885
     39 H12         2.7423   -0.7824    0.2666 H         1 <0>         0.1016
     40 H13         2.9050   -0.1783    1.9504 H         1 <0>         0.1014
     41 H14         7.8913   10.4020   -1.2512 H         1 <0>         0.4463
     42 H15        12.3259    9.0740   -2.2251 H         1 <0>         0.2099
     43 H16        10.8295   13.5248   -1.5180 H         1 <0>         0.2305
@<TRIPOS>BOND
     1    1    6 ar
     2    1    2 ar
     3    1   28 1
     4    2    3 ar
     5    2   29 1
     6    3    4 ar
     7    3   20 1
     8    4    5 ar
     9    4   30 1
    10    5    6 ar
    11    5   31 1
    12    6    7 1
    13    7   11 1
    14    7    8 2
    15    8    9 1
    16    8   32 1
    17    9   15 1
    18    9   10 1
    19   10   11 2
    20   10   12 1
    21   12   13 2
    22   13   19 1
    23   13   14 1
    24   14   15 2
    25   14   16 1
    26   16   17 1
    27   16   33 1
    28   16   34 1
    29   17   18 1
    30   17   35 1
    31   17   36 1
    32   18   19 1
    33   18   37 1
    34   18   38 1
    35   19   39 1
    36   19   40 1
    37   20   21 am
    38   20   41 1
    39   21   22 2
    40   21   23 1
    41   23   27 1
    42   23   24 2
    43   24   25 1
    44   24   42 1
    45   25   26 1
    46   26   27 2
    47   26   43 1
@<TRIPOS>MOLECULE
ZINC44417038
   48    53     0     0     0
SMALL
USER_CHARGES

@<TRIPOS>ATOM
      1 C1          0.0550    1.3530   -0.0281 C.ar      1 <0>        -0.1407
      2 C2          1.2468    2.0663   -0.0280 C.ar      1 <0>        -0.0633
      3 C3          2.4494    1.4181   -0.0281 C.ar      1 <0>        -0.1322
      4 C4          2.4864    0.0255   -0.0282 C.ar      1 <0>         0.1268
      5 C5          1.2800   -0.6970   -0.0283 C.ar      1 <0>        -0.1474
      6 C6          0.0627   -0.0127   -0.0283 C.ar      1 <0>        -0.0435
      7 C7          1.6502   -2.1178   -0.0285 C.2       1 <0>         0.1324
      8 N1          2.9624   -2.1839   -0.0285 N.2       1 <0>        -0.1580
      9 N2          3.5042   -0.8947   -0.0283 N.pl3     1 <0>        -0.4797
     10 H1          4.4510   -0.6840   -0.0283 H         1 <0>         0.4518
     11 C8          0.7193   -3.2615   -0.0279 C.2       1 <0>         0.3810
     12 N3          1.0563   -4.5333   -0.0228 N.2       1 <0>        -0.5044
     13 C9         -0.0393   -5.2951   -0.0235 C.2       1 <0>         0.2641
     14 N4         -1.0928   -4.5282   -0.0290 N.2       1 <0>        -0.3190
     15 O1         -0.6238   -3.1882   -0.0267 O.3       1 <0>        -0.0829
     16 C10        -0.0556   -6.8020   -0.0186 C.3       1 <0>        -0.0172
     17 H2          0.9586   -7.2010   -0.0018 H         1 <0>         0.1381
     18 C11        -0.8826   -7.3426    1.1709 C.3       1 <0>        -0.1451
     19 C12        -1.5821   -8.5622    0.6125 C.2       1 <0>         0.5233
     20 O2         -2.1036   -9.4303    1.2799 O.2       1 <0>        -0.4975
     21 N5         -1.5421   -8.5435   -0.7310 N.am      1 <0>        -0.5558
     22 C13        -0.8455   -7.3502   -1.2276 C.3       1 <0>         0.1076
     23 C14        -2.0929   -9.5344   -1.5511 C.ar      1 <0>         0.1633
     24 C15        -2.1021   -9.3715   -2.9304 C.ar      1 <0>        -0.1555
     25 C16        -2.6459  -10.3520   -3.7344 C.ar      1 <0>        -0.0790
     26 C17        -3.1833  -11.4988   -3.1722 C.ar      1 <0>        -0.1202
     27 C18        -3.1758  -11.6638   -1.7993 C.ar      1 <0>        -0.0678
     28 C19        -2.6265  -10.6853   -0.9896 C.ar      1 <0>        -0.1420
     29 C20        -3.8159  -12.9877   -1.4397 C.3       1 <0>        -0.0839
     30 C21        -4.6041  -13.4103   -2.6976 C.3       1 <0>        -0.1209
     31 C22        -3.8290  -12.7009   -3.8281 C.3       1 <0>        -0.0802
     32 H3         -0.8861    1.8829   -0.0236 H         1 <0>         0.1353
     33 H4          1.2225    3.1461   -0.0283 H         1 <0>         0.1373
     34 H5          3.3693    1.9839   -0.0284 H         1 <0>         0.1348
     35 H6         -0.8679   -0.5607   -0.0287 H         1 <0>         0.1357
     36 H7         -0.2270   -7.6229    1.9953 H         1 <0>         0.1234
     37 H8         -1.6115   -6.6007    1.4972 H         1 <0>         0.1183
     38 H9         -1.5664   -6.6098   -1.5743 H         1 <0>         0.0902
     39 H10        -0.1628   -7.6193   -2.0336 H         1 <0>         0.1027
     40 H11        -1.6846   -8.4790   -3.3727 H         1 <0>         0.1266
     41 H12        -2.6532  -10.2249   -4.8068 H         1 <0>         0.1257
     42 H13        -2.6168  -10.8161    0.0824 H         1 <0>         0.1535
     43 H14        -3.0499  -13.7274   -1.2071 H         1 <0>         0.0825
     44 H15        -4.4920  -12.8634   -0.5938 H         1 <0>         0.0773
     45 H16        -4.5752  -14.4921   -2.8276 H         1 <0>         0.0779
     46 H17        -5.6324  -13.0521   -2.6490 H         1 <0>         0.0729
     47 H18        -4.5139  -12.3810   -4.6133 H         1 <0>         0.0744
     48 H19        -3.0664  -13.3636   -4.2373 H         1 <0>         0.0794
@<TRIPOS>BOND
     1    1    6 ar
     2    1    2 ar
     3    1   32 1
     4    2    3 ar
     5    2   33 1
     6    3    4 ar
     7    3   34 1
     8    4    9 1
     9    4    5 ar
    10    5    6 ar
    11    5    7 1
    12    6   35 1
    13    7    8 2
    14    7   11 1
    15    8    9 1
    16    9   10 1
    17   11   15 1
    18   11   12 2
    19   12   13 1
    20   13   14 2
    21   13   16 1
    22   14   15 1
    23   16   17 1
    24   16   22 1
    25   16   18 1
    26   18   19 1
    27   18   36 1
    28   18   37 1
    29   19   20 2
    30   19   21 am
    31   21   22 1
    32   21   23 1
    33   22   38 1
    34   22   39 1
    35   23   28 ar
    36   23   24 ar
    37   24   25 ar
    38   24   40 1
    39   25   26 ar
    40   25   41 1
    41   26   31 1
    42   26   27 ar
    43   27   28 ar
    44   27   29 1
    45   28   42 1
    46   29   30 1
    47   29   43 1
    48   29   44 1
    49   30   31 1
    50   30   45 1
    51   30   46 1
    52   31   47 1
    53   31   48 1
@<TRIPOS>MOLECULE
ZINC32091896
   42    45     0     0     0
SMALL
USER_CHARGES

@<TRIPOS>ATOM
      1 C1         -0.0184    1.5028    0.0103 C.3       1 <0>        -0.0801
      2 C2          0.0021   -0.0041    0.0020 C.2       1 <0>         0.1453
      3 C3          0.0079   -0.8104   -1.1268 C.2       1 <0>        -0.2641
      4 C4          0.0322   -2.1160   -0.7141 C.2       1 <0>         0.3508
      5 N1          0.0321   -2.1169    0.6356 N.pl3     1 <0>        -0.3183
      6 N2          0.0231   -0.7786    1.0617 N.2       1 <0>        -0.2791
      7 C5          0.0440   -3.2467    1.4610 C.ar      1 <0>         0.2820
      8 C6          0.5476   -3.1591    2.7582 C.ar      1 <0>        -0.0695
      9 C7          0.5383   -4.3040    3.5369 C.ar      1 <0>        -0.1053
     10 C8          0.0262   -5.4722    2.9756 C.ar      1 <0>         0.2614
     11 N3         -0.4309   -5.4611    1.7348 N.ar      1 <0>        -0.2668
     12 N4         -0.4275   -4.3988    1.0144 N.ar      1 <0>        -0.2317
     13 O1         -0.0030   -6.6193    3.7009 O.3       1 <0>        -0.2933
     14 C9         -0.5417   -7.7779    3.0611 C.3       1 <0>         0.0307
     15 N5          0.0637   -3.1754   -1.6197 N.am      1 <0>        -0.6415
     16 C10         0.2740   -2.8915   -2.9226 C.2       1 <0>         0.5358
     17 O2          0.1179   -3.7671   -3.7472 O.2       1 <0>        -0.5036
     18 C11         0.6948   -1.5246   -3.3833 C.3       1 <0>        -0.1319
     19 C12        -0.0134   -0.4259   -2.5845 C.3       1 <0>         0.0322
     20 H1         -1.0448   -0.3315   -2.9244 H         1 <0>         0.1046
     21 C13         0.7065    0.8843   -2.7747 C.ar      1 <0>        -0.0622
     22 C14         2.0397    0.9973   -2.4273 C.ar      1 <0>        -0.0958
     23 C15         2.7002    2.1989   -2.6016 C.ar      1 <0>        -0.1105
     24 C16         2.0279    3.2886   -3.1235 C.ar      1 <0>        -0.1050
     25 C17         0.6951    3.1768   -3.4711 C.ar      1 <0>        -0.1061
     26 C18         0.0349    1.9725   -3.3021 C.ar      1 <0>        -0.0306
     27 Cl1        -1.6377    1.8296   -3.7448 Cl        1 <0>        -0.0618
     28 H2          1.0042    1.8801    0.0026 H         1 <0>         0.0858
     29 H3         -0.5455    1.8639   -0.8728 H         1 <0>         0.0842
     30 H4         -0.5286    1.8543    0.9071 H         1 <0>         0.0797
     31 H5          0.9335   -2.2270    3.1437 H         1 <0>         0.1727
     32 H6          0.9168   -4.2921    4.5484 H         1 <0>         0.1716
     33 H7         -1.5757   -7.5866    2.7739 H         1 <0>         0.0661
     34 H8          0.0456   -8.0083    2.1722 H         1 <0>         0.0661
     35 H9         -0.5061   -8.6226    3.7491 H         1 <0>         0.1072
     36 H10        -0.0615   -4.0901   -1.3222 H         1 <0>         0.4248
     37 H11         1.7723   -1.4209   -3.2553 H         1 <0>         0.1103
     38 H12         0.4495   -1.4127   -4.4394 H         1 <0>         0.1183
     39 H13         2.5653    0.1466   -2.0193 H         1 <0>         0.1292
     40 H14         3.7417    2.2868   -2.3297 H         1 <0>         0.1300
     41 H15         2.5444    4.2273   -3.2591 H         1 <0>         0.1328
     42 H16         0.1699    4.0282   -3.8785 H         1 <0>         0.1354
@<TRIPOS>BOND
     1    1    2 1
     2    1   28 1
     3    1   29 1
     4    1   30 1
     5    2    6 2
     6    2    3 1
     7    3   19 1
     8    3    4 2
     9    4    5 1
    10    4   15 1
    11    5    6 1
    12    5    7 1
    13    7   12 ar
    14    7    8 ar
    15    8    9 ar
    16    8   31 1
    17    9   10 ar
    18    9   32 1
    19   10   11 ar
    20   10   13 1
    21   11   12 ar
    22   13   14 1
    23   14   33 1
    24   14   34 1
    25   14   35 1
    26   15   16 am
    27   15   36 1
    28   16   17 2
    29   16   18 1
    30   18   19 1
    31   18   37 1
    32   18   38 1
    33   19   20 1
    34   19   21 1
    35   21   26 ar
    36   21   22 ar
    37   22   23 ar
    38   22   39 1
    39   23   24 ar
    40   23   40 1
    41   24   25 ar
    42   24   41 1
    43   25   26 ar
    44   25   42 1
    45   26   27 1
@<TRIPOS>MOLECULE
ZINC66470546
   46    49     0     0     0
SMALL
USER_CHARGES

@<TRIPOS>ATOM
      1 C1          0.1161    1.4065   -0.0066 C.3       1 <0>        -0.0868
      2 C2          0.1323   -0.1003    0.0061 C.2       1 <0>         0.2576
      3 N1          0.1560   -0.8841   -1.0400 N.2       1 <0>        -0.3282
      4 N2          0.1643   -2.1174   -0.6817 N.2       1 <0>        -0.0299
      5 N3          0.1466   -2.2075    0.6045 N.2       1 <0>        -0.0781
      6 N4          0.1310   -0.8919    1.1004 N.pl3     1 <0>        -0.3333
      7 C3          0.1152   -0.4880    2.4440 C.ar      1 <0>         0.1679
      8 C4          0.7848    0.6653    2.8304 C.ar      1 <0>        -0.1466
      9 C5          0.7700    1.0650    4.1532 C.ar      1 <0>        -0.0801
     10 C6          0.0882    0.3177    5.0963 C.ar      1 <0>         0.0424
     11 C7         -0.5843   -0.8386    4.7144 C.ar      1 <0>         0.2115
     12 C8         -0.5743   -1.2377    3.3857 C.ar      1 <0>        -0.1588
     13 N5         -1.2739   -1.5948    5.6675 N.pl3     1 <0>        -0.7250
     14 C9         -1.9818   -2.8123    5.2641 C.3       1 <0>         0.1046
     15 C10        -2.6372   -3.4351    6.4698 C.2       1 <0>         0.5127
     16 O1         -2.4501   -2.9653    7.5722 O.2       1 <0>        -0.5074
     17 N6         -3.4312   -4.5142    6.3231 N.am      1 <0>        -0.5458
     18 C11        -3.5981   -5.1454    5.0068 C.3       1 <0>         0.0945
     19 C12        -5.0921   -5.4356    4.8124 C.3       1 <0>        -0.1361
     20 C13        -5.5425   -6.4392    5.8737 C.3       1 <0>        -0.0802
     21 C14        -5.1307   -5.9760    7.2462 C.ar      1 <0>        -0.1123
     22 C15        -4.1071   -5.0568    7.4248 C.ar      1 <0>         0.1464
     23 C16        -3.7440   -4.6574    8.7056 C.ar      1 <0>        -0.1555
     24 C17        -4.3994   -5.1780    9.8037 C.ar      1 <0>        -0.1038
     25 C18        -5.4177   -6.0965    9.6273 C.ar      1 <0>        -0.1348
     26 C19        -5.7886   -6.4884    8.3515 C.ar      1 <0>        -0.1016
     27 F1          0.0757    0.7105    6.3889 F         1 <0>        -0.1298
     28 H1          1.1397    1.7810   -0.0004 H         1 <0>         0.1049
     29 H2         -0.3935    1.7568   -0.9042 H         1 <0>         0.1095
     30 H3         -0.4097    1.7717    0.8756 H         1 <0>         0.0957
     31 H4          1.3184    1.2506    2.0962 H         1 <0>         0.1451
     32 H5          1.2920    1.9623    4.4511 H         1 <0>         0.1547
     33 H6         -1.0990   -2.1328    3.0858 H         1 <0>         0.1447
     34 H7         -1.2835   -1.3131    6.5956 H         1 <0>         0.4210
     35 H8         -2.7432   -2.5620    4.5254 H         1 <0>         0.0988
     36 H9         -1.2731   -3.5179    4.8307 H         1 <0>         0.1029
     37 H10        -3.2487   -4.4695    4.2263 H         1 <0>         0.0944
     38 H11        -3.0332   -6.0768    4.9696 H         1 <0>         0.0863
     39 H12        -5.6605   -4.5117    4.9190 H         1 <0>         0.0744
     40 H13        -5.2565   -5.8552    3.8199 H         1 <0>         0.0910
     41 H14        -6.6274   -6.5380    5.8379 H         1 <0>         0.0831
     42 H15        -5.0867   -7.4079    5.6691 H         1 <0>         0.0805
     43 H16        -2.9485   -3.9397    8.8420 H         1 <0>         0.1743
     44 H17        -4.1168   -4.8684   10.7991 H         1 <0>         0.1257
     45 H18        -5.9310   -6.5032   10.4860 H         1 <0>         0.1231
     46 H19        -6.5845   -7.2062    8.2184 H         1 <0>         0.1262
@<TRIPOS>BOND
     1    1    2 1
     2    1   28 1
     3    1   29 1
     4    1   30 1
     5    2    6 1
     6    2    3 2
     7    3    4 1
     8    4    5 2
     9    5    6 1
    10    6    7 1
    11    7   12 ar
    12    7    8 ar
    13    8    9 ar
    14    8   31 1
    15    9   10 ar
    16    9   32 1
    17   10   11 ar
    18   10   27 1
    19   11   12 ar
    20   11   13 1
    21   12   33 1
    22   13   14 1
    23   13   34 1
    24   14   15 1
    25   14   35 1
    26   14   36 1
    27   15   16 2
    28   15   17 am
    29   17   22 1
    30   17   18 1
    31   18   19 1
    32   18   37 1
    33   18   38 1
    34   19   20 1
    35   19   39 1
    36   19   40 1
    37   20   21 1
    38   20   41 1
    39   20   42 1
    40   21   26 ar
    41   21   22 ar
    42   22   23 ar
    43   23   24 ar
    44   23   43 1
    45   24   25 ar
    46   24   44 1
    47   25   26 ar
    48   25   45 1
    49   26   46 1
@<TRIPOS>MOLECULE
ZINC67590319
   50    53     0     0     0
SMALL
USER_CHARGES

@<TRIPOS>ATOM
      1 C1         -0.0177    1.5258    0.0071 C.3       1 <0>        -0.1441
      2 C2          0.0031   -0.0041   -0.0013 C.3       1 <0>         0.0751
      3 H1          0.5118   -0.3564   -0.8986 H         1 <0>         0.0642
      4 C3         -1.4347   -0.5357    0.0144 C.3       1 <0>         0.0998
      5 N1         -1.3878   -1.9953    0.1949 N.am      1 <0>        -0.6325
      6 C4         -0.5754   -2.5299    1.2993 C.3       1 <0>         0.0882
      7 C5          0.8205   -1.9011    1.2210 C.3       1 <0>         0.1251
      8 H2          1.3324   -2.2611    0.3286 H         1 <0>         0.0714
      9 O1          0.6941   -0.4786    1.1568 O.3       1 <0>        -0.3654
     10 C6          1.6135   -2.2823    2.4445 C.ar      1 <0>        -0.0898
     11 C7          1.4108   -1.6117    3.6362 C.ar      1 <0>        -0.0885
     12 C8          2.1383   -1.9613    4.7584 C.ar      1 <0>        -0.1212
     13 C9          3.0681   -2.9818    4.6891 C.ar      1 <0>        -0.1124
     14 C10         3.2702   -3.6530    3.4977 C.ar      1 <0>        -0.1204
     15 C11         2.5397   -3.3062    2.3765 C.ar      1 <0>        -0.1070
     16 C12        -2.0692   -2.8183   -0.6266 C.2       1 <0>         0.7120
     17 O2         -2.8065   -2.3558   -1.4756 O.2       1 <0>        -0.5798
     18 N2         -1.9333   -4.1538   -0.5071 N.am      1 <0>        -0.7462
     19 C13        -2.5853   -5.0455   -1.4693 C.3       1 <0>         0.1427
     20 C14        -2.2736   -6.4996   -1.1095 C.3       1 <0>        -0.0384
     21 C15        -2.9444   -7.4169   -2.0993 C.2       1 <0>         0.1409
     22 N3         -4.1493   -7.9157   -1.9981 N.2       1 <0>        -0.2364
     23 N4         -4.4116   -8.6590   -3.0152 N.2       1 <0>        -0.2849
     24 C16        -3.3705   -8.6731   -3.8315 C.2       1 <0>         0.1949
     25 N5         -2.4093   -7.8726   -3.2644 N.pl3     1 <0>        -0.3867
     26 C17        -1.2100   -7.6860   -3.8862 C.2       1 <0>         0.0606
     27 C18        -0.9512   -8.2825   -5.0688 C.2       1 <0>        -0.1313
     28 C19        -1.9158   -9.1050   -5.6758 C.2       1 <0>        -0.0872
     29 C20        -3.1134   -9.3061   -5.0629 C.2       1 <0>        -0.0765
     30 H3          1.0049    1.9031   -0.0022 H         1 <0>         0.0696
     31 H4         -0.5462    1.8868   -0.8752 H         1 <0>         0.0771
     32 H5         -0.5265    1.8773    0.9046 H         1 <0>         0.0680
     33 H6         -1.9851   -0.0814    0.8382 H         1 <0>         0.0772
     34 H7         -1.9242   -0.2982   -0.9301 H         1 <0>         0.1047
     35 H8         -1.0393   -2.2764    2.2525 H         1 <0>         0.0834
     36 H9         -0.4959   -3.6130    1.2057 H         1 <0>         0.0870
     37 H10         0.6843   -0.8144    3.6903 H         1 <0>         0.1275
     38 H11         1.9804   -1.4369    5.6893 H         1 <0>         0.1248
     39 H12         3.6370   -3.2544    5.5657 H         1 <0>         0.1238
     40 H13         3.9970   -4.4500    3.4434 H         1 <0>         0.1250
     41 H14         2.6949   -3.8331    1.4466 H         1 <0>         0.1220
     42 H15        -1.4037   -4.5246    0.2161 H         1 <0>         0.3967
     43 H16        -3.6633   -4.8868   -1.4391 H         1 <0>         0.0806
     44 H17        -2.2146   -4.8318   -2.4718 H         1 <0>         0.0668
     45 H18        -1.1957   -6.6583   -1.1397 H         1 <0>         0.0902
     46 H19        -2.6444   -6.7133   -0.1070 H         1 <0>         0.1120
     47 H20        -0.4616   -7.0558   -3.4289 H         1 <0>         0.1690
     48 H21         0.0022   -8.1267   -5.5516 H         1 <0>         0.1581
     49 H22        -1.7047   -9.5804   -6.6223 H         1 <0>         0.1506
     50 H23        -3.8628   -9.9346   -5.5210 H         1 <0>         0.1597
@<TRIPOS>BOND
     1    1    2 1
     2    1   30 1
     3    1   31 1
     4    1   32 1
     5    2    3 1
     6    2    9 1
     7    2    4 1
     8    4    5 1
     9    4   33 1
    10    4   34 1
    11    5    6 1
    12    5   16 am
    13    6    7 1
    14    6   35 1
    15    6   36 1
    16    7    8 1
    17    7    9 1
    18    7   10 1
    19   10   15 ar
    20   10   11 ar
    21   11   12 ar
    22   11   37 1
    23   12   13 ar
    24   12   38 1
    25   13   14 ar
    26   13   39 1
    27   14   15 ar
    28   14   40 1
    29   15   41 1
    30   16   17 2
    31   16   18 am
    32   18   19 1
    33   18   42 1
    34   19   20 1
    35   19   43 1
    36   19   44 1
    37   20   21 1
    38   20   45 1
    39   20   46 1
    40   21   25 1
    41   21   22 2
    42   22   23 1
    43   23   24 2
    44   24   29 1
    45   24   25 1
    46   25   26 1
    47   26   27 2
    48   26   47 1
    49   27   28 1
    50   27   48 1
    51   28   29 2
    52   28   49 1
    53   29   50 1
@<TRIPOS>MOLECULE
ZINC20900806
   44    46     0     0     0
SMALL
USER_CHARGES
N-[4-[[4-methyl-1,1-dioxo-5-(p-tolyl)isothiazol-3-yl]amino]phenyl]acetamide
@<TRIPOS>ATOM
      1 C1        -11.2239   10.1124   -2.5110 C.3       1 <0>        -0.1125
      2 C2        -10.0389    9.2295   -2.2155 C.ar      1 <0>        -0.0965
      3 C3         -8.7575    9.7443   -2.3054 C.ar      1 <0>        -0.1134
      4 C4         -7.6681    8.9422   -2.0374 C.ar      1 <0>        -0.1105
      5 C5         -7.8608    7.6064   -1.6737 C.ar      1 <0>         0.0261
      6 C6         -9.1580    7.0923   -1.5898 C.ar      1 <0>        -0.1234
      7 C7        -10.2376    7.9080   -1.8561 C.ar      1 <0>        -0.1199
      8 C8         -6.7024    6.7430   -1.3863 C.2       1 <0>        -0.6219
      9 C9         -6.6809    5.4401   -1.0231 C.2       1 <0>        -0.0024
     10 C10        -5.3569    4.8882   -0.8147 C.2       1 <0>         0.3720
     11 N1         -4.3234    5.6650   -0.9822 N.2       1 <0>        -0.9272
     12 S1         -4.9677    7.1445   -1.4260 S.o2      1 <0>         2.5161
     13 O1         -4.6104    7.3890   -2.7795 O.2       1 <0>        -0.9894
     14 O2         -4.7105    8.0599   -0.3700 O.2       1 <0>        -0.9867
     15 N2         -5.1939    3.5683   -0.4409 N.2       1 <0>        -0.5887
     16 C11        -3.9083    3.0270   -0.3268 C.ar      1 <0>         0.1473
     17 C12        -2.8608    3.8156    0.1316 C.ar      1 <0>        -0.1250
     18 C13        -1.5927    3.2817    0.2437 C.ar      1 <0>        -0.1084
     19 C14        -1.3643    1.9562   -0.1018 C.ar      1 <0>         0.0870
     20 C15        -2.4103    1.1692   -0.5655 C.ar      1 <0>        -0.1351
     21 C16        -3.6797    1.7012   -0.6723 C.ar      1 <0>        -0.1269
     22 N3         -0.0773    1.4145    0.0121 N.am      1 <0>        -0.6787
     23 C17         0.7316    1.8048    1.0169 C.2       1 <0>         0.5021
     24 O3          0.3733    2.6767    1.7801 O.2       1 <0>        -0.5343
     25 C18         2.0813    1.1578    1.1923 C.3       1 <0>        -0.1725
     26 C19        -7.9366    4.6253   -0.8491 C.3       1 <0>        -0.1144
     27 H1        -10.8729   11.1204   -2.7768 H         1 <0>         0.0634
     28 H2        -11.8682   10.1712   -1.6214 H         1 <0>         0.0671
     29 H3        -11.7955    9.6900   -3.3505 H         1 <0>         0.0670
     30 H4         -8.6102   10.7766   -2.5865 H         1 <0>         0.1242
     31 H5         -6.6686    9.3452   -2.1086 H         1 <0>         0.1187
     32 H6         -9.3144    6.0600   -1.3138 H         1 <0>         0.1408
     33 H7        -11.2406    7.5133   -1.7877 H         1 <0>         0.1216
     34 H8         -3.0385    4.8464    0.4006 H         1 <0>         0.1426
     35 H9         -0.7782    3.8949    0.5998 H         1 <0>         0.1228
     36 H10        -2.2316    0.1397   -0.8386 H         1 <0>         0.1118
     37 H11        -4.4941    1.0878   -1.0284 H         1 <0>         0.1163
     38 H12         0.2730    0.6706   -0.7186 H         1 <0>         0.4232
     39 H13         2.5922    1.6043    2.0581 H         1 <0>         0.0908
     40 H14         2.6853    1.3185    0.2871 H         1 <0>         0.0865
     41 H15         1.9515    0.0784    1.3596 H         1 <0>         0.0864
     42 H16        -7.6702    3.6000   -0.5528 H         1 <0>         0.0942
     43 H17        -8.4918    4.6002   -1.7983 H         1 <0>         0.0798
     44 H18        -8.5642    5.0810   -0.0691 H         1 <0>         0.0798
@<TRIPOS>BOND
     1    1    2 1
     2    1   27 1
     3    1   28 1
     4    1   29 1
     5    2    7 ar
     6    2    3 ar
     7    3    4 ar
     8    3   30 1
     9    4    5 ar
    10    4   31 1
    11    5    6 ar
    12    5    8 1
    13    6    7 ar
    14    6   32 1
    15    7   33 1
    16    8   12 1
    17    8    9 2
    18    9   10 1
    19    9   26 1
    20   10   11 2
    21   10   15 1
    22   11   12 1
    23   12   13 2
    24   12   14 2
    25   15   16 1
    26   16   21 ar
    27   16   17 ar
    28   17   18 ar
    29   17   34 1
    30   18   19 ar
    31   18   35 1
    32   19   20 ar
    33   19   22 1
    34   20   21 ar
    35   20   36 1
    36   21   37 1
    37   22   23 am
    38   22   38 1
    39   23   24 2
    40   23   25 1
    41   25   39 1
    42   25   40 1
    43   25   41 1
    44   26   42 1
    45   26   43 1
    46   26   44 1
@<TRIPOS>MOLECULE
ZINC38549895
   58    62     0     0     0
SMALL
USER_CHARGES

@<TRIPOS>ATOM
      1 C1         -0.0187    1.5252    0.0104 C.3       1 <0>        -0.1282
      2 C2          0.0021   -0.0041    0.0020 C.3       1 <0>        -0.0335
      3 C3         -1.3935   -0.5714    0.0062 C.3       1 <0>        -0.1298
      4 C4         -1.9666   -0.6690    1.4277 C.3       1 <0>         0.1249
      5 H1         -3.0103   -0.3276    1.4096 H         1 <0>         0.0490
      6 C5         -1.1813    0.1553    2.4246 C.3       1 <0>        -0.0641
      7 H2         -1.2029    1.1945    2.0823 H         1 <0>         0.0971
      8 C6          0.2787   -0.2800    2.5033 C.3       1 <0>        -0.0520
      9 H3          0.3200   -1.1993    3.1211 H         1 <0>         0.0698
     10 C7          0.8352   -0.5987    1.1535 C.3       1 <0>        -0.0705
     11 H4          0.8527   -1.7050    1.0386 H         1 <0>         0.0745
     12 C8          2.2416   -0.0880    0.8128 C.3       1 <0>        -0.1129
     13 C9          2.3214   -0.3533   -0.7202 C.3       1 <0>         0.0654
     14 H5          2.9162    0.3966   -1.2379 H         1 <0>         0.0913
     15 C10         0.8513   -0.4088   -1.2249 C.3       1 <0>         0.0240
     16 O1          0.6222   -1.7865   -1.5472 O.3       1 <0>        -0.3468
     17 C11         1.9240   -2.3528   -1.8052 C.3       1 <0>         0.2516
     18 O2          2.8231   -1.6889   -0.8991 O.3       1 <0>        -0.3839
     19 C12         2.3523   -2.1420   -3.2578 C.3       1 <0>        -0.1719
     20 C13         1.8987   -3.8576   -1.4941 C.3       1 <0>        -0.1357
     21 C14         0.5918    0.5281   -2.3723 C.2       1 <0>         0.4995
     22 O3          0.8205    1.7195   -2.2502 O.co2     1 <0>        -0.6810
     23 O4          0.1528    0.0964   -3.4246 O.co2     1 <0>        -0.6749
     24 C15         1.0410    0.8079    3.2618 C.3       1 <0>        -0.1192
     25 C16         0.6491    0.6958    4.7365 C.3       1 <0>        -0.0929
     26 C17        -0.7978    0.3129    4.9155 C.2       1 <0>        -0.0021
     27 C18        -1.1944    0.0561    6.1759 C.2       1 <0>        -0.2535
     28 C19        -2.5834   -0.3802    6.4311 C.2       1 <0>         0.4103
     29 O5         -3.0695   -0.3347    7.5587 O.2       1 <0>        -0.4782
     30 C20        -3.3616   -0.9108    5.2898 C.2       1 <0>        -0.2441
     31 C21        -2.9590   -0.6319    4.0412 C.2       1 <0>        -0.0354
     32 C22        -1.7846    0.2534    3.8022 C.3       1 <0>        -0.0109
     33 C23        -2.3971    1.6675    3.7996 C.3       1 <0>        -0.1479
     34 O6         -1.9592   -2.0485    1.8270 O.3       1 <0>        -0.5655
     35 H6          0.9792    1.9034   -0.2119 H         1 <0>         0.0797
     36 H7         -0.7193    1.8833   -0.7439 H         1 <0>         0.0629
     37 H8         -0.3306    1.8790    0.9931 H         1 <0>         0.0329
     38 H9         -2.0483    0.0649   -0.6052 H         1 <0>         0.0640
     39 H10        -1.3860   -1.5701   -0.4504 H         1 <0>         0.0825
     40 H11         2.3608    0.9658    1.0346 H         1 <0>         0.0803
     41 H12         2.9991   -0.6778    1.3329 H         1 <0>         0.0698
     42 H13         2.3930   -1.0743   -3.4734 H         1 <0>         0.0697
     43 H14         3.3373   -2.5820   -3.4137 H         1 <0>         0.0581
     44 H15         1.6319   -2.6196   -3.9220 H         1 <0>         0.0712
     45 H16         1.1578   -4.3469   -2.1264 H         1 <0>         0.0713
     46 H17         2.8821   -4.2855   -1.6890 H         1 <0>         0.0676
     47 H18         1.6383   -4.0077   -0.4464 H         1 <0>         0.0639
     48 H19         2.1161    0.6518    3.1570 H         1 <0>         0.0773
     49 H20         0.7743    1.7933    2.8813 H         1 <0>         0.0710
     50 H21         1.2698   -0.0683    5.2101 H         1 <0>         0.0846
     51 H22         0.8248    1.6508    5.2306 H         1 <0>         0.0831
     52 H23        -0.4895    0.1746    7.0073 H         1 <0>         0.1380
     53 H24        -4.2539   -1.5199    5.4595 H         1 <0>         0.1383
     54 H25        -3.5118   -1.0590    3.2010 H         1 <0>         0.1402
     55 H26        -3.1411    1.7397    3.0062 H         1 <0>         0.0698
     56 H27        -2.8720    1.8596    4.7617 H         1 <0>         0.0566
     57 H28        -1.6114    2.4035    3.6289 H         1 <0>         0.0711
     58 H29        -2.4854   -2.6258    1.2570 H         1 <0>         0.3736
@<TRIPOS>BOND
     1    1    2 1
     2    1   35 1
     3    1   36 1
     4    1   37 1
     5    2   10 1
     6    2   15 1
     7    2    3 1
     8    3    4 1
     9    3   38 1
    10    3   39 1
    11    4    5 1
    12    4    6 1
    13    4   34 1
    14    6    7 1
    15    6   32 1
    16    6    8 1
    17    8    9 1
    18    8   10 1
    19    8   24 1
    20   10   11 1
    21   10   12 1
    22   12   13 1
    23   12   40 1
    24   12   41 1
    25   13   14 1
    26   13   18 1
    27   13   15 1
    28   15   16 1
    29   15   21 1
    30   16   17 1
    31   17   18 1
    32   17   19 1
    33   17   20 1
    34   19   42 1
    35   19   43 1
    36   19   44 1
    37   20   45 1
    38   20   46 1
    39   20   47 1
    40   21   22 2
    41   21   23 1
    42   24   25 1
    43   24   48 1
    44   24   49 1
    45   25   26 1
    46   25   50 1
    47   25   51 1
    48   26   32 1
    49   26   27 2
    50   27   28 1
    51   27   52 1
    52   28   29 2
    53   28   30 1
    54   30   31 2
    55   30   53 1
    56   31   32 1
    57   31   54 1
    58   32   33 1
    59   33   55 1
    60   33   56 1
    61   33   57 1
    62   34   58 1
@<TRIPOS>MOLECULE
ZINC54465940
   39    41     0     0     0
SMALL
USER_CHARGES

@<TRIPOS>ATOM
      1 C1         -0.0167    1.3798    0.0096 C.2       1 <0>        -0.1124
      2 C2          1.1829    2.0502    0.0018 C.2       1 <0>        -0.1357
      3 C3          2.3428    1.3383   -0.0131 C.2       1 <0>        -0.1267
      4 S1          1.7542   -0.3469   -0.0166 S.3       1 <0>         0.1593
      5 C4          0.0021   -0.0041    0.0020 C.2       1 <0>        -0.0921
      6 C5         -1.1236   -0.9438    0.0081 C.2       1 <0>         0.1352
      7 N1         -2.3790   -0.6249    0.0166 N.2       1 <0>        -0.2624
      8 O1         -3.2305   -1.7536    0.0280 O.3       1 <0>        -0.1557
      9 C6         -2.4505   -2.8930   -0.3874 C.3       1 <0>         0.0346
     10 H1         -2.5293   -3.0481   -1.4634 H         1 <0>         0.0995
     11 C7         -1.0190   -2.4570   -0.0010 C.3       1 <0>        -0.1226
     12 C8         -2.8632   -4.1320    0.3647 C.2       1 <0>         0.3434
     13 O2         -2.2313   -5.2964    0.1396 O.3       1 <0>        -0.6059
     14 C9         -3.8775   -4.0715    1.2735 C.2       1 <0>        -0.4047
     15 C10        -4.5509   -2.8307    1.5134 C.1       1 <0>         0.3013
     16 N2         -5.0851   -1.8464    1.7037 N.1       1 <0>        -0.5158
     17 C11        -4.2801   -5.2802    2.0072 C.2       1 <0>         0.5926
     18 O3         -3.7080   -6.3344    1.8034 O.2       1 <0>        -0.5445
     19 N3         -5.2829   -5.2204    2.9057 N.am      1 <0>        -0.7460
     20 C12        -5.6841   -6.4249    3.6368 C.3       1 <0>         0.1470
     21 C13        -4.8368   -6.5724    4.9175 C.3       1 <0>        -0.1337
     22 C14        -5.7108   -5.9359    6.0266 C.3       1 <0>        -0.1249
     23 C15        -7.1412   -6.3798    5.6315 C.3       1 <0>        -0.1225
     24 C16        -7.1492   -6.3024    4.0908 C.3       1 <0>        -0.1316
     25 Cl1         3.9781    1.9208   -0.0261 Cl        1 <0>         0.0169
     26 H2         -0.9518    1.9200    0.0259 H         1 <0>         0.1512
     27 H3          1.2050    3.1299    0.0070 H         1 <0>         0.1466
     28 H4         -0.2973   -2.7904   -0.7468 H         1 <0>         0.1037
     29 H5         -0.7565   -2.8327    0.9880 H         1 <0>         0.1085
     30 H6         -5.7391   -4.3799    3.0682 H         1 <0>         0.3877
     31 H7         -5.5615   -7.3038    3.0039 H         1 <0>         0.0842
     32 H8         -4.6525   -7.6247    5.1339 H         1 <0>         0.0664
     33 H9         -3.8955   -6.0321    4.8165 H         1 <0>         0.0707
     34 H10        -5.4405   -6.3310    7.0059 H         1 <0>         0.0612
     35 H11        -5.6252   -4.8494    6.0101 H         1 <0>         0.0646
     36 H12        -7.3290   -7.4010    5.9631 H         1 <0>         0.0640
     37 H13        -7.8816   -5.6990    6.0515 H         1 <0>         0.0617
     38 H14        -7.5618   -5.3469    3.7671 H         1 <0>         0.0683
     39 H15        -7.7375   -7.1224    3.6788 H         1 <0>         0.0685
@<TRIPOS>BOND
     1    1    5 2
     2    1    2 1
     3    1   26 1
     4    2    3 2
     5    2   27 1
     6    3    4 1
     7    3   25 1
     8    4    5 1
     9    5    6 1
    10    6   11 1
    11    6    7 2
    12    7    8 1
    13    8    9 1
    14    9   10 1
    15    9   11 1
    16    9   12 1
    17   11   28 1
    18   11   29 1
    19   12   13 1
    20   12   14 2
    21   14   15 1
    22   14   17 1
    23   15   16 3
    24   17   18 2
    25   17   19 am
    26   19   20 1
    27   19   30 1
    28   20   24 1
    29   20   21 1
    30   20   31 1
    31   21   22 1
    32   21   32 1
    33   21   33 1
    34   22   23 1
    35   22   34 1
    36   22   35 1
    37   23   24 1
    38   23   36 1
    39   23   37 1
    40   24   38 1
    41   24   39 1
@<TRIPOS>MOLECULE
ZINC39730949
   44    47     0     0     0
SMALL
USER_CHARGES

@<TRIPOS>ATOM
      1 C1         -0.0187    1.5258    0.0104 C.3       1 <0>        -0.1362
      2 C2          0.0021   -0.0041    0.0020 C.3       1 <0>        -0.1091
      3 S1          0.8794   -0.6050    1.4716 S.3       1 <0>        -0.0105
      4 C3          0.8178   -2.3591    1.3173 C.2       1 <0>         0.4330
      5 N1          0.2102   -2.8875    0.2617 N.2       1 <0>        -0.6870
      6 C4          0.0509   -4.1965    0.1349 C.2       1 <0>         0.5180
      7 O1         -0.4672   -4.6416   -0.8712 O.2       1 <0>        -0.4913
      8 C5          0.4987   -5.1359    1.2095 C.3       1 <0>        -0.2137
      9 H1         -0.3877   -5.5371    1.7009 H         1 <0>         0.1164
     10 C6          1.3003   -6.3056    0.6480 C.3       1 <0>         0.0638
     11 H2          2.1148   -5.9298    0.0288 H         1 <0>         0.0616
     12 C7          1.8648   -7.0936    1.8123 C.2       1 <0>        -0.3881
     13 C8          2.2316   -6.4228    2.9824 C.2       1 <0>         0.2978
     14 C9          2.8336   -7.1899    4.1362 C.3       1 <0>        -0.0824
     15 C10         2.2590   -8.6090    4.1490 C.3       1 <0>        -0.1104
     16 C11         2.5627   -9.2743    2.8036 C.3       1 <0>        -0.1339
     17 C12         1.9995   -8.4336    1.6910 C.2       1 <0>         0.3397
     18 O2          1.6196   -9.0300    0.5463 O.3       1 <0>        -0.5724
     19 N2          2.0371   -5.1245    3.1150 N.2       1 <0>        -0.6039
     20 C13         1.3246   -4.4231    2.2442 C.2       1 <0>         0.4868
     21 N3          1.3877   -3.1072    2.2616 N.2       1 <0>        -0.6156
     22 C14         0.4005   -7.1894   -0.1768 C.ar      1 <0>         0.0269
     23 C15        -0.7021   -7.7869    0.4053 C.ar      1 <0>        -0.0938
     24 C16        -1.5282   -8.5979   -0.3485 C.ar      1 <0>        -0.1371
     25 C17        -1.2509   -8.8122   -1.6909 C.ar      1 <0>         0.0719
     26 C18        -0.1442   -8.2112   -2.2727 C.ar      1 <0>        -0.1339
     27 C19         0.6759   -7.3969   -1.5158 C.ar      1 <0>        -0.0823
     28 O3         -2.0618   -9.6099   -2.4345 O.3       1 <0>        -0.5047
     29 H3          1.0039    1.9031    0.0027 H         1 <0>         0.0638
     30 H4         -0.5459    1.8868   -0.8726 H         1 <0>         0.0737
     31 H5         -0.5289    1.8773    0.9072 H         1 <0>         0.0632
     32 H6         -1.0205   -0.3814    0.0098 H         1 <0>         0.0924
     33 H7          0.5123   -0.3556   -0.8948 H         1 <0>         0.0940
     34 H8          3.9162   -7.2361    4.0178 H         1 <0>         0.0904
     35 H9          2.5895   -6.6895    5.0733 H         1 <0>         0.0886
     36 H10         2.7200   -9.1829    4.9529 H         1 <0>         0.0754
     37 H11         1.1804   -8.5654    4.3000 H         1 <0>         0.0674
     38 H12         3.6416   -9.3663    2.6791 H         1 <0>         0.0876
     39 H13         2.1079  -10.2645    2.7770 H         1 <0>         0.0824
     40 H14        -0.9176   -7.6198    1.4503 H         1 <0>         0.1041
     41 H15        -2.3890   -9.0649    0.1068 H         1 <0>         0.1118
     42 H16         0.0738   -8.3765   -3.3175 H         1 <0>         0.1130
     43 H17         1.5351   -6.9253   -1.9693 H         1 <0>         0.1064
     44 H18        -2.7899   -9.1399   -2.8635 H         1 <0>         0.3760
@<TRIPOS>BOND
     1    1    2 1
     2    1   29 1
     3    1   30 1
     4    1   31 1
     5    2    3 1
     6    2   32 1
     7    2   33 1
     8    3    4 1
     9    4   21 1
    10    4    5 2
    11    5    6 1
    12    6    7 2
    13    6    8 1
    14    8    9 1
    15    8   20 1
    16    8   10 1
    17   10   11 1
    18   10   12 1
    19   10   22 1
    20   12   17 2
    21   12   13 1
    22   13   14 1
    23   13   19 2
    24   14   15 1
    25   14   34 1
    26   14   35 1
    27   15   16 1
    28   15   36 1
    29   15   37 1
    30   16   17 1
    31   16   38 1
    32   16   39 1
    33   17   18 1
    34   19   20 1
    35   20   21 2
    36   22   27 ar
    37   22   23 ar
    38   23   24 ar
    39   23   40 1
    40   24   25 ar
    41   24   41 1
    42   25   26 ar
    43   25   28 1
    44   26   27 ar
    45   26   42 1
    46   27   43 1
    47   28   44 1
@<TRIPOS>MOLECULE
ZINC66254552
   37    39     0     0     0
SMALL
USER_CHARGES

@<TRIPOS>ATOM
      1 C1         -0.0184    1.5028    0.0103 C.3       1 <0>        -0.0779
      2 C2          0.0021   -0.0041    0.0020 C.2       1 <0>         0.1466
      3 C3          0.0052   -0.6819   -1.1779 C.2       1 <0>        -0.2738
      4 S1          0.0311   -2.3703   -0.5894 S.3       1 <0>        -0.2070
      5 C4          0.0350   -1.9952    1.1584 C.2       1 <0>         0.4986
      6 N1          0.0225   -0.6750    1.1411 N.2       1 <0>        -0.5775
      7 N2          0.0522   -2.8613    2.2447 N.2       1 <0>        -1.0015
      8 S2          0.0737   -4.4986    1.9979 S.o2      1 <0>         2.6224
      9 O1         -1.1700   -4.8354    1.3987 O.2       1 <0>        -1.0006
     10 O2          1.3204   -4.8009    1.3867 O.2       1 <0>        -0.9942
     11 C5          0.0920   -5.2644    3.5847 C.ar      1 <0>        -0.6833
     12 C6         -0.9790   -6.0401    3.9890 C.ar      1 <0>         0.0389
     13 C7         -0.9671   -6.6418    5.2316 C.ar      1 <0>        -0.1616
     14 C8          0.1213   -6.4684    6.0772 C.ar      1 <0>         0.2295
     15 C9          1.1956   -5.6893    5.6709 C.ar      1 <0>        -0.2122
     16 C10         1.1814   -5.0930    4.4223 C.ar      1 <0>         0.2379
     17 F1          2.2285   -4.3387    4.0225 F         1 <0>        -0.1067
     18 N3          0.1321   -7.0793    7.3348 N.am      1 <0>        -0.6613
     19 C11        -0.6914   -8.1102    7.5993 C.2       1 <0>         0.5252
     20 O3         -0.6796   -8.6195    8.7000 O.2       1 <0>        -0.5242
     21 C12        -1.6270   -8.6383    6.5455 C.3       1 <0>        -0.1397
     22 C13        -2.1326   -7.4878    5.6742 C.3       1 <0>        -0.0745
     23 S3         -0.0120   -0.0663   -2.8287 S.3       1 <0>        -0.0545
     24 C14         0.0033   -1.5620   -3.8550 C.3       1 <0>        -0.1436
     25 H1          1.0042    1.8801    0.0026 H         1 <0>         0.0686
     26 H2         -0.5455    1.8639   -0.8728 H         1 <0>         0.0667
     27 H3         -0.5286    1.8543    0.9071 H         1 <0>         0.0697
     28 H4         -1.8257   -6.1752    3.3323 H         1 <0>         0.1589
     29 H5          2.0432   -5.5526    6.3262 H         1 <0>         0.1493
     30 H6          0.7375   -6.7581    8.0212 H         1 <0>         0.4144
     31 H7         -1.0995   -9.3599    5.9217 H         1 <0>         0.1073
     32 H8         -2.4741   -9.1279    7.0260 H         1 <0>         0.1130
     33 H9         -2.8285   -6.8757    6.2479 H         1 <0>         0.0879
     34 H10        -2.6412   -7.8918    4.7988 H         1 <0>         0.0988
     35 H11        -0.8772   -2.1645   -3.6322 H         1 <0>         0.0796
     36 H12        -0.0061   -1.2803   -4.9079 H         1 <0>         0.1009
     37 H13         0.9025   -2.1399   -3.6416 H         1 <0>         0.0797
@<TRIPOS>BOND
     1    1    2 1
     2    1   25 1
     3    1   26 1
     4    1   27 1
     5    2    6 1
     6    2    3 2
     7    3    4 1
     8    3   23 1
     9    4    5 1
    10    5    6 2
    11    5    7 1
    12    7    8 1
    13    8    9 2
    14    8   10 2
    15    8   11 1
    16   11   16 ar
    17   11   12 ar
    18   12   13 ar
    19   12   28 1
    20   13   22 1
    21   13   14 ar
    22   14   15 ar
    23   14   18 1
    24   15   16 ar
    25   15   29 1
    26   16   17 1
    27   18   19 am
    28   18   30 1
    29   19   20 2
    30   19   21 1
    31   21   22 1
    32   21   31 1
    33   21   32 1
    34   22   33 1
    35   22   34 1
    36   23   24 1
    37   24   35 1
    38   24   36 1
    39   24   37 1
@<TRIPOS>MOLECULE
ZINC35295467
   32    33     0     0     0
SMALL
USER_CHARGES

@<TRIPOS>ATOM
      1 C1         -0.5788    1.4386    0.0969 C.3       1 <0>        -0.1095
      2 C2         -0.2670   -0.0348    0.0436 C.ar      1 <0>        -0.0061
      3 C3         -0.3659   -0.7197   -1.1497 C.ar      1 <0>        -0.1525
      4 C4         -0.0800   -2.0725   -1.2006 C.ar      1 <0>        -0.0026
      5 C5          0.3069   -2.7484   -0.0564 C.ar      1 <0>        -0.6941
      6 C6          0.4096   -2.0768    1.1437 C.ar      1 <0>         0.0056
      7 C7          0.1284   -0.7092    1.2013 C.ar      1 <0>        -0.1423
      8 C8          0.2428    0.0177    2.4801 C.2       1 <0>         0.5264
      9 O1          0.9234    1.0314    2.5484 O.co2     1 <0>        -0.6785
     10 O2         -0.3431   -0.3934    3.4717 O.co2     1 <0>        -0.6815
     11 S1          0.6684   -4.4712   -0.1332 S.o2      1 <0>         2.7166
     12 O3          1.5502   -4.6525   -1.2326 O.2       1 <0>        -0.9577
     13 O4          1.0041   -4.8750    1.1873 O.2       1 <0>        -0.9557
     14 N1         -0.7400   -5.2502   -0.5227 N.pl3     1 <0>        -1.0417
     15 C9         -1.8676   -5.8337    0.2196 C.3       1 <0>         0.1231
     16 C10        -2.0808   -6.7894   -0.9624 C.3       1 <0>        -0.1506
     17 C11        -1.4169   -5.6572   -1.7633 C.3       1 <0>         0.1200
     18 C12        -0.1908   -2.8137   -2.5080 C.3       1 <0>        -0.1370
     19 H1          0.3441    2.0093   -0.0057 H         1 <0>         0.0805
     20 H2         -1.2575    1.6960   -0.7163 H         1 <0>         0.0558
     21 H3         -1.0488    1.6762    1.0513 H         1 <0>         0.0753
     22 H4         -0.6675   -0.1988   -2.0464 H         1 <0>         0.1242
     23 H5          0.7112   -2.6056    2.0358 H         1 <0>         0.1385
     24 H6         -1.5679   -6.3389    1.1378 H         1 <0>         0.0828
     25 H7         -2.6939   -5.1390    0.3706 H         1 <0>         0.0849
     26 H8         -1.4937   -7.7061   -0.9075 H         1 <0>         0.0944
     27 H9         -3.1270   -6.9597   -1.2164 H         1 <0>         0.0869
     28 H10        -2.1244   -4.9159   -2.1350 H         1 <0>         0.0851
     29 H11        -0.7332   -6.0120   -2.5344 H         1 <0>         0.0826
     30 H12         0.7660   -2.7769   -3.0288 H         1 <0>         0.0884
     31 H13        -0.4597   -3.8523   -2.3152 H         1 <0>         0.0626
     32 H14        -0.9588   -2.3482   -3.1256 H         1 <0>         0.0759
@<TRIPOS>BOND
     1    1    2 1
     2    1   19 1
     3    1   20 1
     4    1   21 1
     5    2    7 ar
     6    2    3 ar
     7    3    4 ar
     8    3   22 1
     9    4    5 ar
    10    4   18 1
    11    5    6 ar
    12    5   11 1
    13    6    7 ar
    14    6   23 1
    15    7    8 1
    16    8    9 2
    17    8   10 1
    18   11   12 2
    19   11   13 2
    20   11   14 1
    21   14   17 1
    22   14   15 1
    23   15   16 1
    24   15   24 1
    25   15   25 1
    26   16   17 1
    27   16   26 1
    28   16   27 1
    29   17   28 1
    30   17   29 1
    31   18   30 1
    32   18   31 1
    33   18   32 1
@<TRIPOS>MOLECULE
ZINC41344541
   35    37     0     0     0
SMALL
USER_CHARGES

@<TRIPOS>ATOM
      1 C1         -0.0187    1.5258    0.0104 C.3       1 <0>        -0.1363
      2 C2          0.0021   -0.0041    0.0020 C.3       1 <0>         0.0136
      3 C3          0.7421   -0.5109    1.2415 C.3       1 <0>        -0.1376
      4 C4         -1.4333   -0.5336    0.0129 C.3       1 <0>        -0.1344
      5 C5          0.7074   -0.4901   -1.2379 C.2       1 <0>         0.1185
      6 C6          2.0758   -0.4678   -1.4435 C.2       1 <0>        -0.2793
      7 C7          2.3217   -1.0017   -2.7066 C.2       1 <0>         0.2710
      8 N1          3.4450   -1.2109   -3.3929 N.2       1 <0>        -0.4364
      9 C8          3.4101   -1.7442   -4.6009 C.2       1 <0>         0.1628
     10 C9          2.1719   -2.1010   -5.1821 C.2       1 <0>        -0.1754
     11 C10         1.0291   -1.8901   -4.4882 C.2       1 <0>         0.1905
     12 N2          1.0997   -1.3366   -3.2409 N.pl3     1 <0>        -0.3054
     13 N3          0.1212   -1.0085   -2.2954 N.2       1 <0>        -0.3277
     14 C11        -0.3047   -2.2606   -5.0839 C.3       1 <0>        -0.1289
     15 C12        -1.5617   -1.8123   -4.3357 C.3       1 <0>        -0.1762
     16 C13        -1.1539   -3.2870   -4.3315 C.3       1 <0>        -0.1566
     17 C14         4.6679   -1.9677   -5.3463 C.2       1 <0>         0.5349
     18 O1          5.7391   -1.6590   -4.8443 O.co2     1 <0>        -0.6454
     19 O2          4.6363   -2.4613   -6.4644 O.co2     1 <0>        -0.6681
     20 H1          1.0039    1.9031    0.0027 H         1 <0>         0.0615
     21 H2         -0.5459    1.8868   -0.8726 H         1 <0>         0.0560
     22 H3         -0.5289    1.8773    0.9072 H         1 <0>         0.0620
     23 H4          0.2319   -0.1594    2.1383 H         1 <0>         0.0613
     24 H5          0.7568   -1.6008    1.2356 H         1 <0>         0.0569
     25 H6          1.7647   -0.1336    1.2338 H         1 <0>         0.0631
     26 H7         -1.9605   -0.1726   -0.8702 H         1 <0>         0.0606
     27 H8         -1.4185   -1.6235    0.0069 H         1 <0>         0.0562
     28 H9         -1.9435   -0.1821    0.9097 H         1 <0>         0.0562
     29 H10         2.8188   -0.1025   -0.7501 H         1 <0>         0.1533
     30 H11         2.1381   -2.5369   -6.1696 H         1 <0>         0.1704
     31 H12        -0.3453   -2.2752   -6.1731 H         1 <0>         0.1334
     32 H13        -1.4240   -1.2495   -3.4124 H         1 <0>         0.1387
     33 H14        -2.4295   -1.5318   -4.9325 H         1 <0>         0.0935
     34 H15        -1.7535   -3.9766   -4.9256 H         1 <0>         0.1009
     35 H16        -0.7479   -3.6943   -3.4056 H         1 <0>         0.0924
@<TRIPOS>BOND
     1    1    2 1
     2    1   20 1
     3    1   21 1
     4    1   22 1
     5    2    3 1
     6    2    4 1
     7    2    5 1
     8    3   23 1
     9    3   24 1
    10    3   25 1
    11    4   26 1
    12    4   27 1
    13    4   28 1
    14    5   13 2
    15    5    6 1
    16    6    7 2
    17    6   29 1
    18    7   12 1
    19    7    8 1
    20    8    9 2
    21    9   10 1
    22    9   17 1
    23   10   11 2
    24   10   30 1
    25   11   12 1
    26   11   14 1
    27   12   13 1
    28   14   16 1
    29   14   15 1
    30   14   31 1
    31   15   16 1
    32   15   32 1
    33   15   33 1
    34   16   34 1
    35   16   35 1
    36   17   18 2
    37   17   19 1
@<TRIPOS>MOLECULE
ZINC49116059
   29    31     0     0     0
SMALL
USER_CHARGES

@<TRIPOS>ATOM
      1 C1         -0.0809    1.3509   -0.5695 C.ar      1 <0>        -0.0520
      2 C2          1.0838    2.0513   -0.7959 C.ar      1 <0>        -0.1327
      3 C3          2.3143    1.4199   -0.6936 C.ar      1 <0>        -0.0734
      4 C4          2.3804    0.0770   -0.3622 C.ar      1 <0>        -0.1296
      5 C5          1.2198   -0.6363   -0.1338 C.ar      1 <0>        -0.0521
      6 C6         -0.0216   -0.0044   -0.2346 C.ar      1 <0>        -0.1585
      7 C7         -1.2638   -0.7642    0.0101 C.2       1 <0>         0.4371
      8 O1         -1.2265   -1.9756    0.1065 O.2       1 <0>        -0.4323
      9 C8         -2.5515   -0.0526    0.1378 C.2       1 <0>         0.3835
     10 O2         -3.7043   -0.7537    0.2471 O.3       1 <0>        -0.6001
     11 N1         -2.5782    1.2565    0.1453 N.2       1 <0>        -0.5898
     12 C9         -3.7555    1.9071    0.2620 C.2       1 <0>         0.3247
     13 N2         -4.9923    1.4233    0.3862 N.2       1 <0>        -0.3254
     14 N3         -5.9538    2.2378    0.4811 N.2       1 <0>        -0.2746
     15 C10        -5.7719    3.5410    0.4612 C.2       1 <0>        -0.1074
     16 S1         -4.0980    3.6610    0.3018 S.3       1 <0>        -0.0232
     17 C11         3.8270   -0.3672   -0.3157 C.3       1 <0>        -0.0775
     18 C12         4.6095    0.7238   -1.0767 C.3       1 <0>        -0.1201
     19 C13         3.7128    1.9661   -0.8911 C.3       1 <0>        -0.0841
     20 H1         -1.0362    1.8488   -0.6462 H         1 <0>         0.1846
     21 H2          1.0382    3.0988   -1.0550 H         1 <0>         0.1223
     22 H3          1.2724   -1.6835    0.1247 H         1 <0>         0.1251
     23 H4         -6.5055    4.3304    0.5334 H         1 <0>         0.2082
     24 H5          4.1708   -0.4285    0.7169 H         1 <0>         0.0763
     25 H6          3.9428   -1.3310   -0.8115 H         1 <0>         0.0719
     26 H7          5.5895    0.8828   -0.6268 H         1 <0>         0.0738
     27 H8          4.7035    0.4682   -2.1321 H         1 <0>         0.0708
     28 H9          3.7507    2.5960   -1.7798 H         1 <0>         0.0745
     29 H10         4.0258    2.5306   -0.0128 H         1 <0>         0.0800
@<TRIPOS>BOND
     1    1    6 ar
     2    1    2 ar
     3    1   20 1
     4    2    3 ar
     5    2   21 1
     6    3   19 1
     7    3    4 ar
     8    4    5 ar
     9    4   17 1
    10    5    6 ar
    11    5   22 1
    12    6    7 1
    13    7    8 2
    14    7    9 1
    15    9   10 1
    16    9   11 2
    17   11   12 1
    18   12   16 1
    19   12   13 2
    20   13   14 1
    21   14   15 2
    22   15   16 1
    23   15   23 1
    24   17   18 1
    25   17   24 1
    26   17   25 1
    27   18   19 1
    28   18   26 1
    29   18   27 1
    30   19   28 1
    31   19   29 1
@<TRIPOS>MOLECULE
ZINC62136367
   37    39     0     0     0
SMALL
USER_CHARGES

@<TRIPOS>ATOM
      1 C1         -0.3709    1.5524    0.4208 C.3       1 <0>        -0.1350
      2 C2         -0.2296    0.0417    0.2240 C.3       1 <0>         0.2265
      3 H1          0.0765   -0.1700   -0.8005 H         1 <0>         0.0785
      4 C3         -1.5620   -0.6452    0.5183 C.2       1 <0>        -0.1368
      5 C4         -2.7793   -0.2029    0.0029 C.2       1 <0>        -0.1379
      6 C5         -3.9210   -0.8637    0.3027 C.2       1 <0>        -0.1805
      7 S1         -3.3207   -2.1766    1.3550 S.3       1 <0>         0.0277
      8 C6         -1.6008   -1.7453    1.3181 C.2       1 <0>        -0.1325
      9 C7         -0.4592   -2.4225    2.0042 C.3       1 <0>        -0.0589
     10 C8          0.8534   -1.9451    1.3639 C.3       1 <0>         0.0423
     11 N1          0.7682   -0.4910    1.1616 N.am      1 <0>        -0.6248
     12 C9          1.5929    0.3412    1.8277 C.2       1 <0>         0.7250
     13 O1          1.6147    1.5251    1.5515 O.2       1 <0>        -0.5813
     14 N2          2.3935   -0.1389    2.7998 N.am      1 <0>        -0.6322
     15 C10         2.5795   -1.5586    3.1334 C.3       1 <0>         0.0893
     16 C11         3.5609   -1.6251    4.3226 C.3       1 <0>        -0.1115
     17 C12         3.4340   -0.2149    4.9571 C.3       1 <0>        -0.1656
     18 H2          2.5704   -0.1610    5.6200 H         1 <0>         0.0751
     19 C13         3.2326    0.6723    3.7005 C.3       1 <0>         0.1513
     20 C14         4.6964    0.1644    5.6875 C.2       1 <0>         0.5038
     21 O2          5.6294   -0.6188    5.7394 O.co2     1 <0>        -0.6908
     22 O3          4.7848    1.2545    6.2265 O.co2     1 <0>        -0.6941
     23 H3          0.5287    2.0514    0.0605 H         1 <0>         0.0886
     24 H4         -1.2347    1.9124   -0.1380 H         1 <0>         0.0451
     25 H5         -0.5073    1.7696    1.4802 H         1 <0>         0.0626
     26 H6         -2.8110    0.6676   -0.6356 H         1 <0>         0.1330
     27 H7         -4.9323   -0.6522   -0.0118 H         1 <0>         0.1853
     28 H8         -0.4643   -2.1649    3.0633 H         1 <0>         0.0878
     29 H9         -0.5513   -3.5024    1.8878 H         1 <0>         0.0908
     30 H10         1.6894   -2.1758    2.0242 H         1 <0>         0.1555
     31 H11         0.9953   -2.4409    0.4036 H         1 <0>         0.0701
     32 H12         1.6243   -2.0012    3.4159 H         1 <0>         0.0710
     33 H13         2.9975   -2.0888    2.2777 H         1 <0>         0.0731
     34 H14         3.2567   -2.3955    5.0311 H         1 <0>         0.0738
     35 H15         4.5784   -1.8007    3.9735 H         1 <0>         0.0877
     36 H16         4.1913    0.8918    3.2307 H         1 <0>         0.0638
     37 H17         2.7196    1.5963    3.9673 H         1 <0>         0.0744
@<TRIPOS>BOND
     1    1    2 1
     2    1   23 1
     3    1   24 1
     4    1   25 1
     5    2    3 1
     6    2   11 1
     7    2    4 1
     8    4    8 2
     9    4    5 1
    10    5    6 2
    11    5   26 1
    12    6    7 1
    13    6   27 1
    14    7    8 1
    15    8    9 1
    16    9   10 1
    17    9   28 1
    18    9   29 1
    19   10   11 1
    20   10   30 1
    21   10   31 1
    22   11   12 am
    23   12   13 2
    24   12   14 am
    25   14   19 1
    26   14   15 1
    27   15   16 1
    28   15   32 1
    29   15   33 1
    30   16   17 1
    31   16   34 1
    32   16   35 1
    33   17   18 1
    34   17   19 1
    35   17   20 1
    36   19   36 1
    37   19   37 1
    38   20   21 2
    39   20   22 1
@<TRIPOS>MOLECULE
ZINC62935232
   42    43     0     0     0
SMALL
USER_CHARGES

@<TRIPOS>ATOM
      1 C1          0.1250    1.6674    0.3989 C.3       1 <0>        -0.1449
      2 C2         -0.0321    0.1483    0.3072 C.3       1 <0>        -0.1041
      3 H1         -1.0587   -0.1266    0.5493 H         1 <0>         0.0736
      4 C3          0.2991   -0.3147   -1.1135 C.3       1 <0>        -0.1131
      5 C4          0.1106   -1.8300   -1.2150 C.3       1 <0>        -0.1343
      6 C5          1.0693   -2.5260   -0.2438 C.3       1 <0>         0.0647
      7 N1          0.8562   -1.9804    1.1036 N.am      1 <0>        -0.6257
      8 C6          0.9244   -0.5253    1.2962 C.3       1 <0>         0.1679
      9 H2          1.9420   -0.1803    1.1130 H         1 <0>         0.0633
     10 C7          0.5114   -0.1767    2.7275 C.3       1 <0>        -0.1357
     11 C8          0.6023   -2.7990    2.1437 C.2       1 <0>         0.7218
     12 O1          0.2740   -2.3333    3.2179 O.2       1 <0>        -0.5827
     13 N2          0.7122   -4.1338    1.9932 N.am      1 <0>        -0.6326
     14 C9          1.3066   -4.8215    0.8326 C.3       1 <0>         0.0950
     15 C10         1.7574   -6.2001    1.3766 C.3       1 <0>        -0.1067
     16 C11         0.6172   -6.5285    2.3762 C.3       1 <0>        -0.1425
     17 C12         0.2649   -5.1451    2.9621 C.3       1 <0>         0.1567
     18 C13        -0.5836   -7.1351    1.6474 C.3       1 <0>        -0.1145
     19 C14         1.1081   -7.4536    3.4599 C.2       1 <0>         0.5096
     20 O2          2.2591   -7.8552    3.4433 O.co2     1 <0>        -0.6908
     21 O3          0.3542   -7.8005    4.3531 O.co2     1 <0>        -0.6917
     22 H3          1.1517    1.9418    0.1567 H         1 <0>         0.0542
     23 H4         -0.5549    2.1462   -0.3058 H         1 <0>         0.0548
     24 H5         -0.1099    1.9965    1.4111 H         1 <0>         0.0606
     25 H6         -0.3645    0.1821   -1.8212 H         1 <0>         0.0617
     26 H7          1.3333   -0.0610   -1.3462 H         1 <0>         0.0616
     27 H8         -0.9171   -2.0868   -0.9583 H         1 <0>         0.0647
     28 H9          0.3241   -2.1558   -2.2330 H         1 <0>         0.0719
     29 H10         0.8709   -3.5978   -0.2396 H         1 <0>         0.1222
     30 H11         2.0986   -2.3441   -0.5531 H         1 <0>         0.0609
     31 H12        -0.4933   -0.5541    2.9179 H         1 <0>         0.0733
     32 H13         1.2100   -0.6332    3.4287 H         1 <0>         0.0715
     33 H14         0.5233    0.9057    2.8557 H         1 <0>         0.0396
     34 H15         0.5634   -4.9489    0.0455 H         1 <0>         0.0667
     35 H16         2.1643   -4.2623    0.4587 H         1 <0>         0.0724
     36 H17         1.8016   -6.9400    0.5775 H         1 <0>         0.0739
     37 H18         2.7163   -6.1233    1.8892 H         1 <0>         0.0847
     38 H19         0.7791   -5.0010    3.9124 H         1 <0>         0.0642
     39 H20        -0.8129   -5.0692    3.1062 H         1 <0>         0.0595
     40 H21        -0.2848   -8.0676    1.1685 H         1 <0>         0.0501
     41 H22        -1.3809   -7.3337    2.3636 H         1 <0>         0.0594
     42 H23        -0.9405   -6.4362    0.8910 H         1 <0>         0.0389
@<TRIPOS>BOND
     1    1    2 1
     2    1   22 1
     3    1   23 1
     4    1   24 1
     5    2    3 1
     6    2    8 1
     7    2    4 1
     8    4    5 1
     9    4   25 1
    10    4   26 1
    11    5    6 1
    12    5   27 1
    13    5   28 1
    14    6    7 1
    15    6   29 1
    16    6   30 1
    17    7    8 1
    18    7   11 am
    19    8    9 1
    20    8   10 1
    21   10   31 1
    22   10   32 1
    23   10   33 1
    24   11   12 2
    25   11   13 am
    26   13   17 1
    27   13   14 1
    28   14   15 1
    29   14   34 1
    30   14   35 1
    31   15   16 1
    32   15   36 1
    33   15   37 1
    34   16   17 1
    35   16   18 1
    36   16   19 1
    37   17   38 1
    38   17   39 1
    39   18   40 1
    40   18   41 1
    41   18   42 1
    42   19   20 2
    43   19   21 1
@<TRIPOS>MOLECULE
ZINC20854867
   49    52     0     0     0
SMALL
USER_CHARGES
1-[1-[1-[(3R)-tetrahydrothiophen-3-yl]-4-piperidyl]triazol-4-yl]cyclopentan-1-ol
@<TRIPOS>ATOM
      1 C1          1.2926   -0.4106   -0.0125 C.2       1 <0>        -0.0354
      2 C2          2.0428    0.7160   -0.0136 C.2       1 <0>         0.0137
      3 N1          1.1858    1.7431    0.0001 N.2       1 <0>        -0.2396
      4 N2         -0.0154    1.2829    0.0091 N.2       1 <0>        -0.0733
      5 N3          0.0021   -0.0041    0.0020 N.pl3     1 <0>        -0.3030
      6 C3         -1.1733   -0.8785    0.0085 C.3       1 <0>         0.1383
      7 C4         -0.8679   -2.1402    0.8206 C.3       1 <0>        -0.1595
      8 C5         -2.0774   -3.0767    0.7731 C.3       1 <0>        -0.0033
      9 N4         -2.3701   -3.4298   -0.6219 N.4       1 <0>        -0.4002
     10 C6         -2.7126   -2.2391   -1.4103 C.3       1 <0>        -0.0031
     11 C7         -1.5221   -1.2776   -1.4280 C.3       1 <0>        -0.1596
     12 C8         -3.4377   -4.4361   -0.6973 C.3       1 <0>         0.0261
     13 H1         -4.3850   -3.9948   -0.3541 H         1 <0>         0.1469
     14 C9         -3.0915   -5.5887    0.2442 C.3       1 <0>        -0.1610
     15 C10        -3.7196   -6.9134   -0.2719 C.3       1 <0>        -0.0746
     16 S1         -3.4351   -6.7031   -2.0845 S.3       1 <0>        -0.2145
     17 C11        -3.6030   -4.8714   -2.1665 C.3       1 <0>        -0.1116
     18 C12         3.5476    0.7973   -0.0275 C.3       1 <0>         0.2201
     19 C13         4.1240    0.1416    1.2443 C.3       1 <0>        -0.1482
     20 C14         5.3364    1.0330    1.6142 C.3       1 <0>        -0.1271
     21 C15         4.8294    2.4575    1.2780 C.3       1 <0>        -0.1212
     22 C16         3.9961    2.2691   -0.0065 C.3       1 <0>        -0.1511
     23 O1          4.0619    0.1454   -1.1905 O.3       1 <0>        -0.5880
     24 H2          1.6518   -1.4291   -0.0217 H         1 <0>         0.1903
     25 H3         -1.9947   -0.3078    0.4663 H         1 <0>         0.1328
     26 H4          0.0087   -2.6485    0.3925 H         1 <0>         0.1048
     27 H5         -0.6575   -1.8627    1.8640 H         1 <0>         0.1290
     28 H6         -1.8560   -3.9908    1.3435 H         1 <0>         0.1466
     29 H7         -2.9496   -2.5718    1.2138 H         1 <0>         0.1373
     30 H8         -2.9565   -2.5390   -2.4402 H         1 <0>         0.1444
     31 H9         -3.5815   -1.7379   -0.9589 H         1 <0>         0.1382
     32 H10        -1.7833   -0.3784   -2.0052 H         1 <0>         0.1290
     33 H11        -0.6559   -1.7722   -1.8918 H         1 <0>         0.1024
     34 H12        -1.9989   -5.7051    0.2950 H         1 <0>         0.1013
     35 H13        -3.4843   -5.3723    1.2486 H         1 <0>         0.1142
     36 H14        -3.1878   -7.7683    0.1711 H         1 <0>         0.1325
     37 H15        -4.7806   -6.9526    0.0157 H         1 <0>         0.1094
     38 H16        -4.5905   -4.5552   -2.5337 H         1 <0>         0.1285
     39 H17        -2.8174   -4.4037   -2.7781 H         1 <0>         0.1201
     40 H18         3.3582    0.1374    2.0339 H         1 <0>         0.0705
     41 H19         4.4247   -0.8924    1.0197 H         1 <0>         0.0776
     42 H20         5.5721    0.9070    2.6812 H         1 <0>         0.0727
     43 H21         6.2065    0.7381    1.0092 H         1 <0>         0.0717
     44 H22         4.2214    2.8368    2.1126 H         1 <0>         0.0693
     45 H23         5.6893    3.1245    1.1181 H         1 <0>         0.0733
     46 H24         4.6006    2.4810   -0.9008 H         1 <0>         0.0785
     47 H25         3.1109    2.9221    0.0009 H         1 <0>         0.0903
     48 H26         5.1473    0.1075   -1.3651 H         1 <0>         0.4202
     49 H27        -1.4589   -3.8681   -1.0551 H         1 <0>         0.4441
@<TRIPOS>BOND
     1    1    5 1
     2    1    2 2
     3    1   24 1
     4    2    3 1
     5    2   18 1
     6    3    4 2
     7    4    5 1
     8    5    6 1
     9    6   11 1
    10    6    7 1
    11    6   25 1
    12    7    8 1
    13    7   26 1
    14    7   27 1
    15    8    9 1
    16    8   28 1
    17    8   29 1
    18    9   10 1
    19    9   12 1
    20    9   49 1
    21   10   11 1
    22   10   30 1
    23   10   31 1
    24   11   32 1
    25   11   33 1
    26   12   13 1
    27   12   17 1
    28   12   14 1
    29   14   15 1
    30   14   34 1
    31   14   35 1
    32   15   16 1
    33   15   36 1
    34   15   37 1
    35   16   17 1
    36   17   38 1
    37   17   39 1
    38   18   22 1
    39   18   19 1
    40   18   23 1
    41   19   20 1
    42   19   40 1
    43   19   41 1
    44   20   21 1
    45   20   42 1
    46   20   43 1
    47   21   22 1
    48   21   44 1
    49   21   45 1
    50   22   46 1
    51   22   47 1
    52   23   48 1
@<TRIPOS>MOLECULE
ZINC37818197
   49    51     0     0     0
SMALL
USER_CHARGES

@<TRIPOS>ATOM
      1 C1         -0.0178    1.4608    0.0101 C.3       1 <0>         0.0511
      2 N1          0.0021   -0.0041    0.0020 N.am      1 <0>        -0.5722
      3 C2          0.0241   -0.7433    1.2666 C.3       1 <0>         0.0958
      4 C3         -1.3889   -1.0161    1.7137 C.2       1 <0>         0.5141
      5 O1         -2.3225   -0.6310    1.0421 O.2       1 <0>        -0.5364
      6 N2         -1.6152   -1.6881    2.8599 N.am      1 <0>        -0.6141
      7 C4         -0.5814   -2.2039    3.7691 C.3       1 <0>         0.0923
      8 C5         -1.3065   -2.9207    4.9277 C.3       1 <0>        -0.1337
      9 C6         -2.6910   -3.2593    4.3146 C.3       1 <0>        -0.1356
     10 C7         -2.9405   -2.0221    3.4128 C.3       1 <0>         0.1042
     11 C8          0.0001   -0.6716   -1.1688 C.2       1 <0>         0.5130
     12 O2          0.0165   -1.8843   -1.1755 O.2       1 <0>        -0.5250
     13 C9         -0.0226    0.0888   -2.4697 C.3       1 <0>         0.0105
     14 H1          0.8493    0.7398   -2.5343 H         1 <0>         0.1695
     15 C10        -1.3122    0.9274   -2.5652 C.3       1 <0>        -0.1434
     16 C11        -2.0507    0.3825   -3.8203 C.3       1 <0>        -0.0951
     17 H2         -2.5712    1.1676   -4.3688 H         1 <0>         0.1373
     18 C12        -3.0069   -0.7060   -3.3275 C.3       1 <0>        -0.1311
     19 C13        -3.4895   -1.5705   -4.4893 C.3       1 <0>        -0.1284
     20 C14        -2.2772   -2.2696   -5.1145 C.3       1 <0>        -0.1339
     21 C15        -1.3500   -1.1995   -5.6903 C.3       1 <0>        -0.1383
     22 C16        -0.8886   -0.2212   -4.6300 C.3       1 <0>         0.0394
     23 H3         -0.3216    0.5860   -5.0938 H         1 <0>         0.1424
     24 N3         -0.0302   -0.8599   -3.6093 N.4       1 <0>        -0.5029
     25 H4          1.0048    1.8381    0.0023 H         1 <0>         0.0776
     26 H5         -0.5450    1.8219   -0.8730 H         1 <0>         0.0867
     27 H6         -0.5280    1.8123    0.9069 H         1 <0>         0.0909
     28 H7          0.5496   -1.6879    1.1262 H         1 <0>         0.1220
     29 H8          0.5371   -0.1514    2.0246 H         1 <0>         0.1222
     30 H9          0.0593   -2.9093    3.2399 H         1 <0>         0.0734
     31 H10         0.0147   -1.3788    4.1589 H         1 <0>         0.0744
     32 H11        -0.7767   -3.8305    5.2100 H         1 <0>         0.0887
     33 H12        -1.4162   -2.2555    5.7842 H         1 <0>         0.0822
     34 H13        -2.6435   -4.1743    3.7241 H         1 <0>         0.0786
     35 H14        -3.4534   -3.3357    5.0899 H         1 <0>         0.0910
     36 H15        -3.3256   -1.1908    4.0033 H         1 <0>         0.0739
     37 H16        -3.6343   -2.2719    2.6102 H         1 <0>         0.0799
     38 H17        -1.9236    0.7856   -1.6741 H         1 <0>         0.1194
     39 H18        -1.0699    1.9821   -2.6959 H         1 <0>         0.1204
     40 H19        -2.4908   -1.3352   -2.6024 H         1 <0>         0.0633
     41 H20        -3.8663   -0.2379   -2.8476 H         1 <0>         0.0900
     42 H21        -4.1934   -2.3173   -4.1220 H         1 <0>         0.0803
     43 H22        -3.9750   -0.9422   -5.2360 H         1 <0>         0.0789
     44 H23        -1.7490   -2.8415   -4.3515 H         1 <0>         0.0612
     45 H24        -2.6079   -2.9364   -5.9109 H         1 <0>         0.0923
     46 H25        -0.4790   -1.6830   -6.1325 H         1 <0>         0.0899
     47 H26        -1.8814   -0.6469   -6.4652 H         1 <0>         0.1149
     48 H27         0.9054   -0.9883   -3.9645 H         1 <0>         0.4353
     49 H28        -0.4235   -1.7448   -3.3258 H         1 <0>         0.4331
@<TRIPOS>BOND
     1    1    2 1
     2    1   25 1
     3    1   26 1
     4    1   27 1
     5    2    3 1
     6    2   11 am
     7    3    4 1
     8    3   28 1
     9    3   29 1
    10    4    5 2
    11    4    6 am
    12    6   10 1
    13    6    7 1
    14    7    8 1
    15    7   30 1
    16    7   31 1
    17    8    9 1
    18    8   32 1
    19    8   33 1
    20    9   10 1
    21    9   34 1
    22    9   35 1
    23   10   36 1
    24   10   37 1
    25   11   12 2
    26   11   13 1
    27   13   14 1
    28   13   24 1
    29   13   15 1
    30   15   16 1
    31   15   38 1
    32   15   39 1
    33   16   17 1
    34   16   22 1
    35   16   18 1
    36   18   19 1
    37   18   40 1
    38   18   41 1
    39   19   20 1
    40   19   42 1
    41   19   43 1
    42   20   21 1
    43   20   44 1
    44   20   45 1
    45   21   22 1
    46   21   46 1
    47   21   47 1
    48   22   23 1
    49   22   24 1
    50   24   48 1
    51   24   49 1
@<TRIPOS>MOLECULE
ZINC45933546
   43    45     0     0     0
SMALL
USER_CHARGES

@<TRIPOS>ATOM
      1 C1         -0.4523    1.4635    0.0336 C.3       1 <0>        -0.1425
      2 C2         -0.2041   -0.0228    0.0131 C.ar      1 <0>         0.2253
      3 C3         -0.2097   -0.7160   -1.1815 C.ar      1 <0>        -0.2538
      4 C4          0.0256   -2.0919   -1.1504 C.ar      1 <0>         0.4849
      5 N1          0.2453   -2.6808    0.0216 N.ar      1 <0>        -0.5295
      6 C5          0.2415   -1.9802    1.1374 C.ar      1 <0>         0.4388
      7 N2          0.0276   -0.6797    1.1408 N.ar      1 <0>        -0.5437
      8 C6          0.4946   -2.6844    2.4454 C.3       1 <0>        -0.1291
      9 N3          0.0298   -2.8319   -2.3217 N.pl3     1 <0>        -0.5400
     10 C7          0.0443   -4.3004   -2.2793 C.3       1 <0>         0.1047
     11 C8          1.2144   -4.8067   -3.1287 C.3       1 <0>        -0.1448
     12 C9          1.1080   -4.2196   -4.5380 C.3       1 <0>         0.1421
     13 C10         1.1897   -2.6932   -4.4641 C.3       1 <0>        -0.1476
     14 C11         0.0137   -2.1630   -3.6297 C.3       1 <0>         0.1026
     15 N4          2.2069   -4.7279   -5.3627 N.am      1 <0>        -0.7275
     16 C12         2.0740   -4.7834   -6.7027 C.2       1 <0>         0.5481
     17 O1          1.0445   -4.4127   -7.2258 O.2       1 <0>        -0.5332
     18 C13         3.2045   -5.3063   -7.5511 C.3       1 <0>        -0.2029
     19 C14         3.9333   -4.3064   -8.4510 C.3       1 <0>        -0.1504
     20 C15         2.9920   -5.3442   -9.0658 C.3       1 <0>        -0.1443
     21 H1          0.4956    1.9916   -0.0697 H         1 <0>         0.1187
     22 H2         -1.1104    1.7333   -0.7923 H         1 <0>         0.1174
     23 H3         -0.9216    1.7405    0.9776 H         1 <0>         0.1018
     24 H4         -0.3920   -0.2066   -2.1162 H         1 <0>         0.1846
     25 H5          1.5638   -2.6841    2.6574 H         1 <0>         0.1238
     26 H6         -0.0345   -2.1663    3.2453 H         1 <0>         0.1085
     27 H7          0.1375   -3.7122    2.3798 H         1 <0>         0.1252
     28 H8          0.1688   -4.6351   -1.2494 H         1 <0>         0.1144
     29 H9         -0.8926   -4.6868   -2.6805 H         1 <0>         0.0954
     30 H10         2.1551   -4.4950   -2.6748 H         1 <0>         0.0797
     31 H11         1.1796   -5.8947   -3.1842 H         1 <0>         0.0991
     32 H12         0.1561   -4.5112   -4.9819 H         1 <0>         0.0968
     33 H13         2.1306   -2.4014   -3.9976 H         1 <0>         0.0764
     34 H14         1.1374   -2.2769   -5.4701 H         1 <0>         0.0981
     35 H15        -0.9256   -2.3787   -4.1389 H         1 <0>         0.1020
     36 H16         0.1180   -1.0869   -3.4912 H         1 <0>         0.1004
     37 H17         3.0303   -5.0244   -4.9443 H         1 <0>         0.4046
     38 H18         3.7953   -6.1066   -7.1056 H         1 <0>         0.1258
     39 H19         3.5950   -3.2704   -8.4295 H         1 <0>         0.0990
     40 H20         5.0039   -4.4486   -8.5977 H         1 <0>         0.1079
     41 H21         3.4434   -6.1692   -9.6168 H         1 <0>         0.1074
     42 H22         2.0345   -4.9909   -9.4487 H         1 <0>         0.1094
     43 H23         0.0365   -0.1965    1.9818 H         1 <0>         0.4464
@<TRIPOS>BOND
     1    1    2 1
     2    1   21 1
     3    1   22 1
     4    1   23 1
     5    2    7 ar
     6    2    3 ar
     7    3    4 ar
     8    3   24 1
     9    4    5 ar
    10    4    9 1
    11    5    6 ar
    12    6    7 ar
    13    6    8 1
    14    7   43 1
    15    8   25 1
    16    8   26 1
    17    8   27 1
    18    9   14 1
    19    9   10 1
    20   10   11 1
    21   10   28 1
    22   10   29 1
    23   11   12 1
    24   11   30 1
    25   11   31 1
    26   12   13 1
    27   12   15 1
    28   12   32 1
    29   13   14 1
    30   13   33 1
    31   13   34 1
    32   14   35 1
    33   14   36 1
    34   15   16 am
    35   15   37 1
    36   16   17 2
    37   16   18 1
    38   18   20 1
    39   18   19 1
    40   18   38 1
    41   19   20 1
    42   19   39 1
    43   19   40 1
    44   20   41 1
    45   20   42 1
@<TRIPOS>MOLECULE
ZINC54744546
   26    27     0     0     0
SMALL
USER_CHARGES

@<TRIPOS>ATOM
      1 C1         -0.1210    1.4943    0.0037 C.3       1 <0>        -0.0483
      2 N1         -0.0677    0.0264   -0.0164 N.4       1 <0>        -0.5090
      3 C2         -1.4336   -0.5136    0.0098 C.3       1 <0>         0.0829
      4 C3         -1.3832   -2.0141   -0.1207 C.2       1 <0>         0.1655
      5 N2         -1.3082   -2.6931   -1.2355 N.2       1 <0>        -0.2808
      6 N3         -1.2831   -3.9546   -0.9964 N.2       1 <0>        -0.0125
      7 N4         -1.3396   -4.1683    0.2739 N.2       1 <0>        -0.0228
      8 N5         -1.4012   -2.9071    0.8924 N.pl3     1 <0>        -0.3057
      9 C4         -1.4691   -2.6347    2.2667 C.ar      1 <0>         0.1041
     10 C5         -2.3533   -1.6762    2.7427 C.ar      1 <0>        -0.1172
     11 C6         -2.4186   -1.4103    4.0965 C.ar      1 <0>        -0.0611
     12 C7         -1.6035   -2.0979    4.9777 C.ar      1 <0>        -0.0820
     13 C8         -0.7215   -3.0535    4.5060 C.ar      1 <0>        -0.0593
     14 C9         -0.6564   -3.3273    3.1538 C.ar      1 <0>        -0.0772
     15 I1         -1.7045   -1.6906    7.0303 I         1 <0>         0.0059
     16 H1          0.8925    1.8949   -0.0157 H         1 <0>         0.1368
     17 H2         -0.6691    1.8499   -0.8688 H         1 <0>         0.1336
     18 H3         -0.6260    1.8272    0.9105 H         1 <0>         0.1296
     19 H4          0.3997   -0.2818   -0.8558 H         1 <0>         0.4409
     20 H5         -1.9118   -0.2468    0.9523 H         1 <0>         0.1592
     21 H6         -2.0054   -0.0958   -0.8188 H         1 <0>         0.1805
     22 H7         -2.9894   -1.1387    2.0551 H         1 <0>         0.1443
     23 H8         -3.1063   -0.6647    4.4673 H         1 <0>         0.1541
     24 H9         -0.0860   -3.5886    5.1961 H         1 <0>         0.1544
     25 H10         0.0292   -4.0766    2.7865 H         1 <0>         0.1519
     26 H11         0.4396   -0.3028    0.7913 H         1 <0>         0.4322
@<TRIPOS>BOND
     1    1    2 1
     2    1   16 1
     3    1   17 1
     4    1   18 1
     5    2    3 1
     6    2   19 1
     7    2   26 1
     8    3    4 1
     9    3   20 1
    10    3   21 1
    11    4    8 1
    12    4    5 2
    13    5    6 1
    14    6    7 2
    15    7    8 1
    16    8    9 1
    17    9   14 ar
    18    9   10 ar
    19   10   11 ar
    20   10   22 1
    21   11   12 ar
    22   11   23 1
    23   12   13 ar
    24   12   15 1
    25   13   14 ar
    26   13   24 1
    27   14   25 1
@<TRIPOS>MOLECULE
ZINC61917283
   49    51     0     0     0
SMALL
USER_CHARGES

@<TRIPOS>ATOM
      1 C1          2.0344   -2.4386   -1.0779 C.3       1 <0>        -0.1540
      2 C2          0.7905   -2.2814   -0.2011 C.3       1 <0>         0.1142
      3 H1          0.4826   -3.2627    0.1600 H         1 <0>         0.0400
      4 C3         -0.3500   -1.6736   -1.0466 C.3       1 <0>         0.0052
      5 N1         -1.6086   -1.8788   -0.3607 N.3       1 <0>        -0.5665
      6 C4         -2.0198   -0.7485    0.5028 C.3       1 <0>         0.0581
      7 C5         -0.8427   -0.1696    1.2975 C.3       1 <0>        -0.1620
      8 C6          0.0581   -1.2565    1.8345 C.3       1 <0>         0.0750
      9 O1          1.0946   -1.4881    0.8670 O.3       1 <0>        -0.3748
     10 C7         -2.6736   -2.2314   -1.3090 C.3       1 <0>         0.0709
     11 H2         -2.7001   -1.4978   -2.1149 H         1 <0>         0.1014
     12 C8         -4.0206   -2.2404   -0.5831 C.3       1 <0>        -0.1334
     13 C9         -5.1282   -2.6129   -1.5700 C.3       1 <0>         0.2552
     14 C10        -4.8541   -3.9979   -2.1586 C.3       1 <0>        -0.1553
     15 C11        -3.5059   -3.9858   -2.8822 C.3       1 <0>        -0.1360
     16 C12        -2.3990   -3.6192   -1.8915 C.3       1 <0>         0.0346
     17 H3         -1.4382   -3.6135   -2.4062 H         1 <0>         0.1442
     18 N2         -2.3666   -4.6081   -0.8058 N.4       1 <0>        -0.5050
     19 C13        -1.9634   -5.9139   -1.3446 C.3       1 <0>        -0.0533
     20 O2         -5.1697   -1.6434   -2.6300 O.3       1 <0>        -0.3663
     21 C14        -6.5747   -1.5092   -2.9533 C.3       1 <0>         0.0152
     22 C15        -7.2336   -1.6502   -1.5583 C.3       1 <0>         0.0197
     23 O3         -6.3931   -2.6173   -0.8965 O.3       1 <0>        -0.3719
     24 H4          2.8387   -2.8826   -0.4912 H         1 <0>         0.0724
     25 H5          1.8029   -3.0849   -1.9245 H         1 <0>         0.0687
     26 H6          2.3479   -1.4605   -1.4425 H         1 <0>         0.0689
     27 H7         -0.1766   -0.6056   -1.1786 H         1 <0>         0.0696
     28 H8         -0.3818   -2.1620   -2.0206 H         1 <0>         0.0794
     29 H9         -2.4457    0.0370   -0.1214 H         1 <0>         0.0511
     30 H10        -2.7815   -1.0955    1.2010 H         1 <0>         0.0850
     31 H11        -0.2619    0.4841    0.6468 H         1 <0>         0.0790
     32 H12        -1.2305    0.4150    2.1317 H         1 <0>         0.0900
     33 H13         0.4992   -0.9368    2.7786 H         1 <0>         0.0990
     34 H14        -0.5166   -2.1703    1.9860 H         1 <0>         0.0603
     35 H15        -3.9930   -2.9712    0.2251 H         1 <0>         0.0855
     36 H16        -4.2183   -1.2506   -0.1716 H         1 <0>         0.1050
     37 H17        -4.8294   -4.7354   -1.3563 H         1 <0>         0.0767
     38 H18        -5.6434   -4.2553   -2.8649 H         1 <0>         0.1017
     39 H19        -3.3082   -4.9735   -3.2988 H         1 <0>         0.1009
     40 H20        -3.5317   -3.2507   -3.6865 H         1 <0>         0.1199
     41 H21        -1.7041   -4.3150   -0.1035 H         1 <0>         0.4352
     42 H22        -2.6791   -6.2306   -2.1033 H         1 <0>         0.1242
     43 H23        -0.9725   -5.8323   -1.7914 H         1 <0>         0.1252
     44 H24        -1.9393   -6.6477   -0.5390 H         1 <0>         0.1282
     45 H25        -6.7837   -0.5311   -3.3866 H         1 <0>         0.1187
     46 H26        -6.8995   -2.3074   -3.6207 H         1 <0>         0.0829
     47 H27        -7.2179   -0.6986   -1.0270 H         1 <0>         0.0844
     48 H28        -8.2532   -2.0246   -1.6499 H         1 <0>         0.1104
     49 H29        -3.2838   -4.6837   -0.3922 H         1 <0>         0.4223
@<TRIPOS>BOND
     1    1    2 1
     2    1   24 1
     3    1   25 1
     4    1   26 1
     5    2    3 1
     6    2    9 1
     7    2    4 1
     8    4    5 1
     9    4   27 1
    10    4   28 1
    11    5    6 1
    12    5   10 1
    13    6    7 1
    14    6   29 1
    15    6   30 1
    16    7    8 1
    17    7   31 1
    18    7   32 1
    19    8    9 1
    20    8   33 1
    21    8   34 1
    22   10   11 1
    23   10   16 1
    24   10   12 1
    25   12   13 1
    26   12   35 1
    27   12   36 1
    28   13   23 1
    29   13   14 1
    30   13   20 1
    31   14   15 1
    32   14   37 1
    33   14   38 1
    34   15   16 1
    35   15   39 1
    36   15   40 1
    37   16   17 1
    38   16   18 1
    39   18   19 1
    40   18   41 1
    41   18   49 1
    42   19   42 1
    43   19   43 1
    44   19   44 1
    45   20   21 1
    46   21   22 1
    47   21   45 1
    48   21   46 1
    49   22   23 1
    50   22   47 1
    51   22   48 1
@<TRIPOS>MOLECULE
ZINC05760757
   36    38     0     0     0
SMALL
USER_CHARGES
N-methyl-4-methylsulfanyl-7-tetrahydropyran-2-yl-3,5,7,8-tetrazabicyclo[4.3.0]nona-2,4,8,10-tetraen-2-amine
@<TRIPOS>ATOM
      1 C1          1.2475    1.7155   -0.0006 C.3       1 <0>         0.0939
      2 N1         -0.0111    0.9658    0.0074 N.pl3     1 <0>        -0.6991
      3 C2         -1.2162    1.6400    0.0167 C.ar      1 <0>         0.5285
      4 C3         -2.4366    0.9346    0.0128 C.ar      1 <0>        -0.3356
      5 C4         -2.7910   -0.4319    0.0122 C.2       1 <0>         0.1032
      6 N2         -4.0904   -0.5214    0.0168 N.2       1 <0>        -0.2335
      7 N3         -4.6516    0.7618    0.0260 N.pl3     1 <0>        -0.3708
      8 C5         -3.6364    1.6717    0.0269 C.ar      1 <0>         0.3879
      9 N4         -3.5750    3.0023    0.0339 N.ar      1 <0>        -0.5594
     10 C6         -2.4069    3.6227    0.0327 C.ar      1 <0>         0.3855
     11 N5         -1.2516    2.9665    0.0241 N.ar      1 <0>        -0.6077
     12 S1         -2.3820    5.3845    0.0422 S.3       1 <0>         0.0173
     13 C7         -0.5952    5.6736    0.0360 C.3       1 <0>        -0.1439
     14 C8         -6.0832    1.0727    0.0329 C.3       1 <0>         0.3490
     15 H1         -6.2287    2.1213   -0.2267 H         1 <0>         0.0998
     16 C9         -6.6566    0.8075    1.4274 C.3       1 <0>        -0.1574
     17 C10        -8.1643    1.0771    1.4108 C.3       1 <0>        -0.1196
     18 C11        -8.8169    0.2004    0.3375 C.3       1 <0>        -0.1607
     19 C12        -8.1601    0.4891   -1.0149 C.3       1 <0>         0.0688
     20 O1         -6.7547    0.2479   -0.9215 O.3       1 <0>        -0.3807
     21 H2          1.3053    2.3381    0.8922 H         1 <0>         0.0632
     22 H3          2.0855    1.0186   -0.0124 H         1 <0>         0.0783
     23 H4          1.2883    2.3477   -0.8877 H         1 <0>         0.0632
     24 H5          0.0021   -0.0041    0.0020 H         1 <0>         0.4159
     25 H6         -2.1011   -1.2629    0.0050 H         1 <0>         0.1950
     26 H7         -0.1507    5.2196    0.9216 H         1 <0>         0.0910
     27 H8         -0.1584    5.2293   -0.8583 H         1 <0>         0.0910
     28 H9         -0.4007    6.7461    0.0410 H         1 <0>         0.1066
     29 H10        -6.4753   -0.2311    1.7043 H         1 <0>         0.0840
     30 H11        -6.1765    1.4672    2.1501 H         1 <0>         0.0790
     31 H12        -8.3444    2.1276    1.1825 H         1 <0>         0.0698
     32 H13        -8.5897    0.8377    2.3854 H         1 <0>         0.0781
     33 H14        -9.8818    0.4259    0.2809 H         1 <0>         0.0817
     34 H15        -8.6792   -0.8504    0.5924 H         1 <0>         0.0765
     35 H16        -8.3329    1.5300   -1.2881 H         1 <0>         0.0568
     36 H17        -8.5911   -0.1626   -1.7749 H         1 <0>         0.1045
@<TRIPOS>BOND
     1    1    2 1
     2    1   21 1
     3    1   22 1
     4    1   23 1
     5    2    3 1
     6    2   24 1
     7    3   11 ar
     8    3    4 ar
     9    4    8 ar
    10    4    5 1
    11    5    6 2
    12    5   25 1
    13    6    7 1
    14    7    8 1
    15    7   14 1
    16    8    9 ar
    17    9   10 ar
    18   10   11 ar
    19   10   12 1
    20   12   13 1
    21   13   26 1
    22   13   27 1
    23   13   28 1
    24   14   15 1
    25   14   20 1
    26   14   16 1
    27   16   17 1
    28   16   29 1
    29   16   30 1
    30   17   18 1
    31   17   31 1
    32   17   32 1
    33   18   19 1
    34   18   33 1
    35   18   34 1
    36   19   20 1
    37   19   35 1
    38   19   36 1
@<TRIPOS>MOLECULE
ZINC32650460
   38    40     0     0     0
SMALL
USER_CHARGES
N-(4-methoxyphenyl)-1,3,5-trimethyl-pyrazolo[4,3-d]pyrimidin-7-amine
@<TRIPOS>ATOM
      1 C1         -0.6871    2.7225    4.6900 C.3       1 <0>        -0.0767
      2 C2         -0.9950    2.2457    3.2940 C.2       1 <0>         0.1019
      3 C3         -2.0926    2.6571    2.5079 C.ar      1 <0>         0.0953
      4 C4         -1.9954    1.9740    1.2823 C.ar      1 <0>        -0.0289
      5 C5         -2.9746    2.2117    0.3076 C.ar      1 <0>         0.4582
      6 N1         -3.9482    3.0728    0.5834 N.ar      1 <0>        -0.5405
      7 C6         -4.0020    3.6968    1.7474 C.ar      1 <0>         0.3280
      8 N2         -3.1137    3.5033    2.6948 N.ar      1 <0>        -0.4942
      9 C7         -5.1318    4.6616    2.0003 C.3       1 <0>        -0.0843
     10 N3         -2.9280    1.5641   -0.9153 N.pl3     1 <0>        -0.6522
     11 C8         -3.9849    1.7044   -1.8225 C.ar      1 <0>         0.1236
     12 C9         -5.1685    2.3104   -1.4219 C.ar      1 <0>        -0.1184
     13 C10        -6.2087    2.4532   -2.3189 C.ar      1 <0>        -0.1815
     14 C11        -6.0757    1.9812   -3.6165 C.ar      1 <0>         0.1014
     15 C12        -4.8957    1.3711   -4.0160 C.ar      1 <0>        -0.1270
     16 C13        -3.8525    1.2326   -3.1219 C.ar      1 <0>        -0.1222
     17 O1         -7.1026    2.1171   -4.4976 O.3       1 <0>        -0.3196
     18 C14        -8.2882    2.7551   -4.0187 C.3       1 <0>         0.0242
     19 N4         -0.8804    1.1841    1.3574 N.pl3     1 <0>        -0.3804
     20 N5         -0.2921    1.3846    2.6132 N.2       1 <0>        -0.2216
     21 C15        -0.3855    0.2907    0.3072 C.3       1 <0>         0.0929
     22 H1         -1.4522    3.4463    5.0073 H         1 <0>         0.0912
     23 H2          0.3015    3.2046    4.7031 H         1 <0>         0.0834
     24 H3         -0.6858    1.8646    5.3785 H         1 <0>         0.0835
     25 H4         -5.0288    5.0908    3.0079 H         1 <0>         0.0898
     26 H5         -6.0918    4.1300    1.9246 H         1 <0>         0.0856
     27 H6         -5.0994    5.4682    1.2531 H         1 <0>         0.0866
     28 H7         -2.0604    0.9393   -1.1741 H         1 <0>         0.4369
     29 H8         -5.2738    2.6739   -0.4104 H         1 <0>         0.1857
     30 H9         -7.1275    2.9287   -2.0089 H         1 <0>         0.1304
     31 H10        -4.7930    1.0039   -5.0264 H         1 <0>         0.1334
     32 H11        -2.9337    0.7579   -3.4332 H         1 <0>         0.1284
     33 H12        -9.0329    2.7992   -4.8271 H         1 <0>         0.1010
     34 H13        -8.0468    3.7756   -3.6865 H         1 <0>         0.0564
     35 H14        -8.6975    2.1816   -3.1739 H         1 <0>         0.0558
     36 H15         0.5283   -0.2132    0.6551 H         1 <0>         0.1106
     37 H16        -0.1600    0.8764   -0.5962 H         1 <0>         0.0806
     38 H17        -1.1532   -0.4619    0.0742 H         1 <0>         0.0828
@<TRIPOS>BOND
     1    1    2 1
     2    1   22 1
     3    1   23 1
     4    1   24 1
     5    2   20 2
     6    2    3 1
     7    3    8 ar
     8    3    4 ar
     9    4    5 ar
    10    4   19 1
    11    5    6 ar
    12    5   10 1
    13    6    7 ar
    14    7    8 ar
    15    7    9 1
    16    9   25 1
    17    9   26 1
    18    9   27 1
    19   10   11 1
    20   10   28 1
    21   11   16 ar
    22   11   12 ar
    23   12   13 ar
    24   12   29 1
    25   13   14 ar
    26   13   30 1
    27   14   15 ar
    28   14   17 1
    29   15   16 ar
    30   15   31 1
    31   16   32 1
    32   17   18 1
    33   18   33 1
    34   18   34 1
    35   18   35 1
    36   19   20 1
    37   19   21 1
    38   21   36 1
    39   21   37 1
    40   21   38 1
@<TRIPOS>MOLECULE
ZINC39365987
   27    29     0     0     0
SMALL
USER_CHARGES

@<TRIPOS>ATOM
      1 C1         -0.0169    1.3932    0.0097 C.ar      1 <0>        -0.1008
      2 C2          1.1803    2.0851    0.0020 C.ar      1 <0>         0.1143
      3 N1          2.3320    1.4483   -0.0124 N.ar      1 <0>        -0.4405
      4 C3          2.4005    0.1214   -0.0202 C.ar      1 <0>         0.1963
      5 C4          1.2408   -0.6489   -0.0133 C.ar      1 <0>        -0.0872
      6 C5          0.0021   -0.0041    0.0020 C.ar      1 <0>         0.0320
      7 C6         -1.2614   -0.7826    0.0104 C.2       1 <0>         0.2673
      8 N2         -2.4935   -0.2637    0.0201 N.2       1 <0>        -0.5018
      9 C7         -3.3834   -1.2326    0.0255 C.2       1 <0>         0.3303
     10 N3         -2.7188   -2.4117    0.0192 N.pl3     1 <0>        -0.4602
     11 H1         -3.1101   -3.2992    0.0205 H         1 <0>         0.4487
     12 N4         -1.3505   -2.0958    0.0038 N.2       1 <0>        -0.2733
     13 C8         -4.8540   -1.0629    0.0369 C.ar      1 <0>         0.0239
     14 C9         -5.7057   -2.1732    0.0483 C.ar      1 <0>        -0.1511
     15 C10        -7.0700   -1.9704    0.0592 C.ar      1 <0>         0.1311
     16 N5         -7.5741   -0.7510    0.0591 N.ar      1 <0>        -0.4630
     17 C11        -6.8073    0.3232    0.0486 C.ar      1 <0>         0.1794
     18 C12        -5.4300    0.2110    0.0426 C.ar      1 <0>        -0.1030
     19 Cl1        -7.5386    1.8977    0.0491 Cl        1 <0>        -0.0108
     20 C13         3.6794   -0.5227   -0.0364 C.1       1 <0>         0.2629
     21 N6          4.6940   -1.0335   -0.0492 N.1       1 <0>        -0.3778
     22 H2         -0.9558    1.9266    0.0260 H         1 <0>         0.1600
     23 H3          1.1701    3.1650    0.0075 H         1 <0>         0.1794
     24 H4          1.2981   -1.7273   -0.0200 H         1 <0>         0.1551
     25 H5         -5.3006   -3.1744    0.0481 H         1 <0>         0.1458
     26 H6         -7.7348   -2.8214    0.0676 H         1 <0>         0.1780
     27 H7         -4.8080    1.0939    0.0383 H         1 <0>         0.1647
@<TRIPOS>BOND
     1    1    6 ar
     2    1    2 ar
     3    1   22 1
     4    2    3 ar
     5    2   23 1
     6    3    4 ar
     7    4    5 ar
     8    4   20 1
     9    5    6 ar
    10    5   24 1
    11    6    7 1
    12    7   12 2
    13    7    8 1
    14    8    9 2
    15    9   10 1
    16    9   13 1
    17   10   11 1
    18   10   12 1
    19   13   18 ar
    20   13   14 ar
    21   14   15 ar
    22   14   25 1
    23   15   16 ar
    24   15   26 1
    25   16   17 ar
    26   17   18 ar
    27   17   19 1
    28   18   27 1
    29   20   21 3
@<TRIPOS>MOLECULE
ZINC47097140
   41    43     0     0     0
SMALL
USER_CHARGES

@<TRIPOS>ATOM
      1 C1         -0.0263    1.5284    0.0173 C.3       1 <0>        -0.1292
      2 C2         -0.0132   -0.0015    0.0135 C.3       1 <0>        -0.1396
      3 H1          0.0534   -0.4687   -0.9691 H         1 <0>         0.1080
      4 C3         -0.8423   -0.7178    1.0814 C.3       1 <0>        -0.1727
      5 C4          0.6853   -0.7049    1.1789 C.3       1 <0>        -0.1714
      6 H2          1.2111   -1.6350    0.9631 H         1 <0>         0.1091
      7 C5          1.3172    0.1755    2.2590 C.3       1 <0>         0.1699
      8 N1          2.0348   -0.6678    3.2183 N.am      1 <0>        -0.7439
      9 C6          2.6740   -0.1058    4.2632 C.2       1 <0>         0.7087
     10 O1          2.7323    1.1048    4.3606 O.2       1 <0>        -0.5841
     11 N2          3.2487   -0.8857    5.2003 N.am      1 <0>        -0.6303
     12 C7          3.2921   -2.3453    5.0346 C.3       1 <0>         0.0974
     13 C8          4.7508   -2.8073    5.1400 C.3       1 <0>         0.1073
     14 N3          5.3456   -2.2132    6.3455 N.pl3     1 <0>        -0.6007
     15 C9          5.3021   -0.7536    6.5111 C.3       1 <0>         0.1091
     16 C10         3.8484   -0.2912    6.4031 C.3       1 <0>         0.1155
     17 C11         5.9382   -3.0175    7.3119 C.ar      1 <0>         0.3587
     18 C12         6.1634   -4.3683    7.0545 C.ar      1 <0>        -0.0109
     19 N4          6.7262   -5.1279    7.9746 N.ar      1 <0>        -0.4016
     20 C13         7.0763   -4.6089    9.1398 C.ar      1 <0>        -0.0224
     21 C14         6.8546   -3.2700    9.3987 C.ar      1 <0>         0.1078
     22 N5          6.2960   -2.5002    8.4798 N.ar      1 <0>        -0.5026
     23 H3          0.9981    1.9006    0.0045 H         1 <0>         0.0629
     24 H4         -0.5551    1.8894   -0.8648 H         1 <0>         0.0634
     25 H5         -0.5313    1.8852    0.9150 H         1 <0>         0.0587
     26 H6         -1.3971   -0.0990    1.7867 H         1 <0>         0.0976
     27 H7         -1.3208   -1.6563    0.8016 H         1 <0>         0.0964
     28 H8          2.0146    0.8739    1.7964 H         1 <0>         0.0724
     29 H9          0.5361    0.7317    2.7773 H         1 <0>         0.0681
     30 H10         2.0498   -1.6306    3.1013 H         1 <0>         0.3951
     31 H11         2.7006   -2.8201    5.8174 H         1 <0>         0.0775
     32 H12         2.8929   -2.6145    4.0568 H         1 <0>         0.0904
     33 H13         4.7859   -3.8943    5.2124 H         1 <0>         0.0988
     34 H14         5.3031   -2.4787    4.2596 H         1 <0>         0.0784
     35 H15         5.7014   -0.4843    7.4890 H         1 <0>         0.1093
     36 H16         5.8937   -0.2788    5.7283 H         1 <0>         0.0700
     37 H17         3.8165    0.7958    6.3287 H         1 <0>         0.1074
     38 H18         3.2974   -0.6163    7.2855 H         1 <0>         0.0711
     39 H19         5.8775   -4.7927    6.1035 H         1 <0>         0.1635
     40 H20         7.5364   -5.2336    9.8911 H         1 <0>         0.1669
     41 H21         7.1420   -2.8503   10.3514 H         1 <0>         0.1701
@<TRIPOS>BOND
     1    1    2 1
     2    1   23 1
     3    1   24 1
     4    1   25 1
     5    2    3 1
     6    2    5 1
     7    2    4 1
     8    4    5 1
     9    4   26 1
    10    4   27 1
    11    5    6 1
    12    5    7 1
    13    7    8 1
    14    7   28 1
    15    7   29 1
    16    8    9 am
    17    8   30 1
    18    9   10 2
    19    9   11 am
    20   11   16 1
    21   11   12 1
    22   12   13 1
    23   12   31 1
    24   12   32 1
    25   13   14 1
    26   13   33 1
    27   13   34 1
    28   14   15 1
    29   14   17 1
    30   15   16 1
    31   15   35 1
    32   15   36 1
    33   16   37 1
    34   16   38 1
    35   17   22 ar
    36   17   18 ar
    37   18   19 ar
    38   18   39 1
    39   19   20 ar
    40   20   21 ar
    41   20   40 1
    42   21   22 ar
    43   21   41 1
@<TRIPOS>MOLECULE
ZINC62397052
   34    37     0     0     0
SMALL
USER_CHARGES

@<TRIPOS>ATOM
      1 C1         -0.0383    1.5508   -0.1723 C.3       1 <0>        -0.1479
      2 C2         -0.0069    0.0232   -0.0941 C.3       1 <0>        -0.0305
      3 C3         -1.4170   -0.5064   -0.0459 C.2       1 <0>         0.1445
      4 N1         -2.5366    0.1512   -0.0686 N.2       1 <0>        -0.2625
      5 N2         -3.7638   -0.5018   -0.0166 N.pl3     1 <0>        -0.3234
      6 C4         -5.1141   -0.1805   -0.0176 C.2       1 <0>         0.0483
      7 C5         -5.8124   -1.3408    0.0561 C.2       1 <0>         0.0953
      8 N3         -4.9284   -2.3581    0.1018 N.2       1 <0>        -0.4111
      9 C6         -3.7235   -1.8699    0.0593 C.2       1 <0>         0.1561
     10 S1         -1.9767   -2.1996    0.0489 S.3       1 <0>         0.1024
     11 C7         -7.2903   -1.4685    0.0826 C.ar      1 <0>        -0.0015
     12 C8         -8.0739   -0.6853   -0.7629 C.ar      1 <0>        -0.0883
     13 C9         -9.4485   -0.8044   -0.7373 C.ar      1 <0>        -0.0989
     14 C10       -10.0546   -1.7022    0.1284 C.ar      1 <0>         0.0420
     15 C11        -9.2758   -2.4881    0.9758 C.ar      1 <0>         0.0319
     16 C12        -7.8971   -2.3757    0.9489 C.ar      1 <0>        -0.0674
     17 O1        -10.1031   -3.2797    1.7194 O.3       1 <0>        -0.3062
     18 C13       -11.4077   -2.6801    1.6118 C.3       1 <0>         0.2126
     19 O2        -11.3694   -2.0027    0.3420 O.3       1 <0>        -0.3068
     20 C14        -5.6985    1.2068   -0.0874 C.3       1 <0>         0.1495
     21 O3         -5.7789    1.6217   -1.4525 O.3       1 <0>        -0.5632
     22 H1          0.9816    1.9339   -0.2071 H         1 <0>         0.0770
     23 H2         -0.5725    1.8577   -1.0715 H         1 <0>         0.0662
     24 H3         -0.5463    1.9493    0.7060 H         1 <0>         0.0653
     25 H4          0.5011   -0.3753   -0.9723 H         1 <0>         0.1144
     26 H5          0.5273   -0.2837    0.8051 H         1 <0>         0.1143
     27 H6         -7.6052    0.0152   -1.4382 H         1 <0>         0.1496
     28 H7        -10.0540   -0.1964   -1.3931 H         1 <0>         0.1424
     29 H8         -7.2920   -2.9870    1.6020 H         1 <0>         0.1411
     30 H9        -12.1827   -3.4465    1.6138 H         1 <0>         0.1339
     31 H10       -11.5698   -1.9681    2.4210 H         1 <0>         0.0865
     32 H11        -6.6966    1.2031    0.3506 H         1 <0>         0.0823
     33 H12        -5.0617    1.8976    0.4654 H         1 <0>         0.0638
     34 H13        -6.1469    2.5078   -1.5732 H         1 <0>         0.3880
@<TRIPOS>BOND
     1    1    2 1
     2    1   22 1
     3    1   23 1
     4    1   24 1
     5    2    3 1
     6    2   25 1
     7    2   26 1
     8    3   10 1
     9    3    4 2
    10    4    5 1
    11    5    9 1
    12    5    6 1
    13    6    7 2
    14    6   20 1
    15    7    8 1
    16    7   11 1
    17    8    9 2
    18    9   10 1
    19   11   16 ar
    20   11   12 ar
    21   12   13 ar
    22   12   27 1
    23   13   14 ar
    24   13   28 1
    25   14   19 1
    26   14   15 ar
    27   15   16 ar
    28   15   17 1
    29   16   29 1
    30   17   18 1
    31   18   19 1
    32   18   30 1
    33   18   31 1
    34   20   21 1
    35   20   32 1
    36   20   33 1
    37   21   34 1
@<TRIPOS>MOLECULE
ZINC08768111
   33    35     0     0     0
SMALL
USER_CHARGES
6-chloro-5-methyl-2-(piperidine-1-carbonyl)-4H-[1,2,4]triazolo[5,1-b]pyrimidin-7-one
@<TRIPOS>ATOM
      1 C1         -1.0414   -7.8517   -2.5935 C.3       1 <0>        -0.1051
      2 C2         -0.6877   -6.5760   -1.8734 C.2       1 <0>         0.2391
      3 C3          0.0819   -6.6184   -0.7614 C.2       1 <0>        -0.3180
      4 C4          0.4087   -5.4188   -0.0935 C.2       1 <0>         0.5590
      5 O1          1.1012   -5.4452    0.9082 O.3       1 <0>        -0.5468
      6 N1         -0.0479   -4.2464   -0.5688 N.pl3     1 <0>        -0.3891
      7 C5         -0.8229   -4.2106   -1.6897 C.2       1 <0>         0.4900
      8 N2         -1.1430   -5.3790   -2.3434 N.2       1 <0>        -0.5629
      9 N3         -1.1247   -2.9536   -1.9272 N.2       1 <0>        -0.5289
     10 C6         -0.5683   -2.1691   -0.9927 C.2       1 <0>         0.2202
     11 N4          0.1040   -2.9189   -0.1449 N.2       1 <0>        -0.3116
     12 C7         -0.6858   -0.6950   -0.9285 C.2       1 <0>         0.6183
     13 O2         -1.2293   -0.0889   -1.8309 O.2       1 <0>        -0.5133
     14 N5         -0.1902   -0.0250    0.1307 N.am      1 <0>        -0.5980
     15 C8         -0.1900    1.4441    0.1539 C.3       1 <0>         0.1125
     16 C9          1.2332    1.9325    0.4413 C.3       1 <0>        -0.1341
     17 C10         1.7403    1.2835    1.7312 C.3       1 <0>        -0.1208
     18 C11         1.7768   -0.2368    1.5591 C.3       1 <0>        -0.1290
     19 C12         0.3597   -0.7498    1.2844 C.3       1 <0>         0.0637
     20 Cl1         0.6634   -8.1393   -0.1595 Cl        1 <0>        -0.0676
     21 H1         -0.5874   -8.7061   -2.0702 H         1 <0>         0.0807
     22 H2         -0.6603   -7.8085   -3.6245 H         1 <0>         0.0795
     23 H3         -2.1347   -7.9716   -2.6114 H         1 <0>         0.0795
     24 H4         -0.5256    1.8262   -0.8215 H         1 <0>         0.0937
     25 H5         -0.8720    1.7985    0.9409 H         1 <0>         0.0684
     26 H6          1.8921    1.6543   -0.3944 H         1 <0>         0.0672
     27 H7          1.2292    3.0264    0.5565 H         1 <0>         0.0741
     28 H8          2.7530    1.6512    1.9531 H         1 <0>         0.0624
     29 H9          1.0663    1.5419    2.5612 H         1 <0>         0.0626
     30 H10         2.4319   -0.4945    0.7138 H         1 <0>         0.0663
     31 H11         2.1645   -0.7007    2.4781 H         1 <0>         0.0746
     32 H12        -0.2771   -0.5756    2.1643 H         1 <0>         0.0627
     33 H13         0.3896   -1.8264    1.0608 H         1 <0>         0.1506
@<TRIPOS>BOND
     1    1    2 1
     2    1   21 1
     3    1   22 1
     4    1   23 1
     5    2    8 2
     6    2    3 1
     7    3    4 2
     8    3   20 1
     9    4    5 1
    10    4    6 1
    11    6   11 1
    12    6    7 1
    13    7    8 1
    14    7    9 2
    15    9   10 1
    16   10   11 2
    17   10   12 1
    18   12   13 2
    19   12   14 am
    20   14   19 1
    21   14   15 1
    22   15   16 1
    23   15   24 1
    24   15   25 1
    25   16   17 1
    26   16   26 1
    27   16   27 1
    28   17   18 1
    29   17   28 1
    30   17   29 1
    31   18   19 1
    32   18   30 1
    33   18   31 1
    34   19   32 1
    35   19   33 1
@<TRIPOS>MOLECULE
ZINC36966395
   41    43     0     0     0
SMALL
USER_CHARGES

@<TRIPOS>ATOM
      1 C1         -1.1250    1.6127    1.4619 C.3       1 <0>        -0.1469
      2 C2         -1.1572    0.0834    1.4925 C.3       1 <0>        -0.0911
      3 H1         -1.0951   -0.3007    0.4742 H         1 <0>         0.0716
      4 C3         -2.4661   -0.3854    2.1342 C.3       1 <0>        -0.1085
      5 C4         -2.6093   -1.8978    1.9156 C.3       1 <0>        -0.0358
      6 C5         -1.3154   -2.5567    2.2929 C.2       1 <0>        -0.2355
      7 C6         -0.1110   -1.9434    2.4779 C.2       1 <0>        -0.1365
      8 C7          0.9556   -2.7581    2.8273 C.2       1 <0>        -0.0841
      9 C8          0.6937   -4.1100    2.9526 C.2       1 <0>        -0.2159
     10 S1         -1.0470   -4.1809    2.5728 S.3       1 <0>         0.1984
     11 C9          1.6081   -5.2000    3.3054 C.2       1 <0>         0.5760
     12 O1          2.6527   -4.9559    3.8801 O.2       1 <0>        -0.4484
     13 N1          1.2919   -6.4724    2.9935 N.am      1 <0>        -0.5914
     14 C10         0.1114   -6.7704    2.1711 C.3       1 <0>         0.1009
     15 C11         0.5434   -7.6371    0.9840 C.3       1 <0>        -0.1290
     16 C12         1.2772   -8.8760    1.5025 C.3       1 <0>        -0.1182
     17 C13         2.5307   -8.4456    2.2677 C.3       1 <0>        -0.1157
     18 C14         2.1246   -7.5876    3.4642 C.3       1 <0>         0.0756
     19 H2          1.5574   -8.1948    4.1697 H         1 <0>         0.0613
     20 C15         3.3596   -7.0468    4.1377 C.2       1 <0>         0.5178
     21 O2          3.4909   -7.1519    5.3452 O.co2     1 <0>        -0.7029
     22 O3          4.2273   -6.5042    3.4750 O.co2     1 <0>        -0.6766
     23 C16         0.0310   -0.4338    2.3039 C.3       1 <0>        -0.0516
     24 H3         -0.1947    1.9475    1.0029 H         1 <0>         0.0554
     25 H4         -1.9702    1.9824    0.8814 H         1 <0>         0.0543
     26 H5         -1.1870    1.9978    2.4798 H         1 <0>         0.0549
     27 H6         -2.4465   -0.1708    3.2027 H         1 <0>         0.0666
     28 H7         -3.3061    0.1320    1.6708 H         1 <0>         0.0693
     29 H8         -3.4135   -2.2840    2.5420 H         1 <0>         0.0783
     30 H9         -2.8298   -2.0971    0.8669 H         1 <0>         0.0799
     31 H10         1.9440   -2.3557    2.9932 H         1 <0>         0.1434
     32 H11        -0.6237   -7.3094    2.7687 H         1 <0>         0.0669
     33 H12        -0.3233   -5.8402    1.8053 H         1 <0>         0.0781
     34 H13        -0.3365   -7.9451    0.4193 H         1 <0>         0.0694
     35 H14         1.2085   -7.0640    0.3382 H         1 <0>         0.0667
     36 H15         0.6197   -9.4355    2.1679 H         1 <0>         0.0589
     37 H16         1.5641   -9.5067    0.6610 H         1 <0>         0.0598
     38 H17         3.0652   -9.3291    2.6166 H         1 <0>         0.0656
     39 H18         3.1771   -7.8648    1.6097 H         1 <0>         0.0731
     40 H19         0.9582   -0.2140    1.7747 H         1 <0>         0.0727
     41 H20         0.0431    0.0480    3.2816 H         1 <0>         0.0731
@<TRIPOS>BOND
     1    1    2 1
     2    1   24 1
     3    1   25 1
     4    1   26 1
     5    2    3 1
     6    2   23 1
     7    2    4 1
     8    4    5 1
     9    4   27 1
    10    4   28 1
    11    5    6 1
    12    5   29 1
    13    5   30 1
    14    6   10 1
    15    6    7 2
    16    7    8 1
    17    7   23 1
    18    8    9 2
    19    8   31 1
    20    9   10 1
    21    9   11 1
    22   11   12 2
    23   11   13 am
    24   13   18 1
    25   13   14 1
    26   14   15 1
    27   14   32 1
    28   14   33 1
    29   15   16 1
    30   15   34 1
    31   15   35 1
    32   16   17 1
    33   16   36 1
    34   16   37 1
    35   17   18 1
    36   17   38 1
    37   17   39 1
    38   18   19 1
    39   18   20 1
    40   20   21 2
    41   20   22 1
    42   23   40 1
    43   23   41 1
@<TRIPOS>MOLECULE
ZINC40591006
   46    48     0     0     0
SMALL
USER_CHARGES

@<TRIPOS>ATOM
      1 C1         -1.5379    2.8545   -2.8572 C.3       1 <0>        -0.1197
      2 C2         -0.2997    2.5646   -2.0081 C.3       1 <0>        -0.1228
      3 C3          0.8308    2.0410   -2.8987 C.3       1 <0>        -0.1089
      4 C4          0.3662    0.7614   -3.5923 C.3       1 <0>         0.1780
      5 H1          0.0935    0.0192   -2.8421 H         1 <0>         0.0566
      6 C5         -0.8528    1.0789   -4.4646 C.3       1 <0>        -0.1013
      7 H2         -0.5906    1.8545   -5.1842 H         1 <0>         0.0745
      8 C6         -1.9888    1.5777   -3.5727 C.3       1 <0>        -0.1068
      9 C7         -1.2765   -0.1843   -5.2123 C.3       1 <0>        -0.1102
     10 C8         -0.1353   -0.6321   -6.1307 C.3       1 <0>        -0.1365
     11 C9          1.1086   -0.9436   -5.2940 C.3       1 <0>         0.0867
     12 N1          1.4289    0.2243   -4.4490 N.am      1 <0>        -0.6399
     13 C10         2.6573    0.7789   -4.4583 C.2       1 <0>         0.6930
     14 O1          2.8181    1.9073   -4.0348 O.2       1 <0>        -0.5002
     15 N2          3.7073    0.0828   -4.9369 N.am      1 <0>        -0.6087
     16 C11         3.5750   -1.3447   -5.2590 C.3       1 <0>         0.0730
     17 C12         4.6706   -2.1203   -4.5208 C.3       1 <0>        -0.1319
     18 C13         6.0357   -1.5216   -4.8675 C.3       1 <0>        -0.1177
     19 C14         6.0856   -0.0620   -4.4102 C.3       1 <0>        -0.1134
     20 C15         5.0045    0.7383   -5.1524 C.3       1 <0>         0.0894
     21 H3          5.2299    0.7607   -6.2186 H         1 <0>         0.0525
     22 C16         4.9554    2.1449   -4.6139 C.2       1 <0>         0.5217
     23 O2          4.9376    2.3364   -3.4099 O.co2     1 <0>        -0.6749
     24 O3          4.9333    3.0914   -5.3821 O.co2     1 <0>        -0.7086
     25 H4         -2.3421    3.2126   -2.2144 H         1 <0>         0.0558
     26 H5         -1.2992    3.6190   -3.5965 H         1 <0>         0.0616
     27 H6          0.0233    3.4810   -1.5140 H         1 <0>         0.0621
     28 H7         -0.5442    1.8154   -1.2551 H         1 <0>         0.0524
     29 H8          1.0820    2.7916   -3.6481 H         1 <0>         0.0888
     30 H9          1.7073    1.8267   -2.2872 H         1 <0>         0.0778
     31 H10        -2.2355    0.8141   -2.8351 H         1 <0>         0.0596
     32 H11        -2.8652    1.7926   -4.1843 H         1 <0>         0.0598
     33 H12        -1.4985   -0.9747   -4.4953 H         1 <0>         0.0598
     34 H13        -2.1635    0.0264   -5.8098 H         1 <0>         0.0600
     35 H14        -0.4384   -1.5256   -6.6764 H         1 <0>         0.0687
     36 H15         0.0941    0.1642   -6.8388 H         1 <0>         0.0658
     37 H16         0.9150   -1.8105   -4.6622 H         1 <0>         0.0605
     38 H17         1.9492   -1.1537   -5.9552 H         1 <0>         0.1079
     39 H18         2.5960   -1.7020   -4.9397 H         1 <0>         0.1091
     40 H19         3.6863   -1.4886   -6.3337 H         1 <0>         0.0571
     41 H20         4.5049   -2.0498   -3.4458 H         1 <0>         0.0633
     42 H21         4.6441   -3.1664   -4.8257 H         1 <0>         0.0632
     43 H22         6.8190   -2.0872   -4.3629 H         1 <0>         0.0552
     44 H23         6.1902   -1.5700   -5.9454 H         1 <0>         0.0556
     45 H24         5.9065   -0.0109   -3.3363 H         1 <0>         0.0715
     46 H25         7.0662    0.3568   -4.6364 H         1 <0>         0.0609
@<TRIPOS>BOND
     1    1    8 1
     2    1    2 1
     3    1   25 1
     4    1   26 1
     5    2    3 1
     6    2   27 1
     7    2   28 1
     8    3    4 1
     9    3   29 1
    10    3   30 1
    11    4    5 1
    12    4   12 1
    13    4    6 1
    14    6    7 1
    15    6    8 1
    16    6    9 1
    17    8   31 1
    18    8   32 1
    19    9   10 1
    20    9   33 1
    21    9   34 1
    22   10   11 1
    23   10   35 1
    24   10   36 1
    25   11   12 1
    26   11   37 1
    27   11   38 1
    28   12   13 am
    29   13   14 2
    30   13   15 am
    31   15   20 1
    32   15   16 1
    33   16   17 1
    34   16   39 1
    35   16   40 1
    36   17   18 1
    37   17   41 1
    38   17   42 1
    39   18   19 1
    40   18   43 1
    41   18   44 1
    42   19   20 1
    43   19   45 1
    44   19   46 1
    45   20   21 1
    46   20   22 1
    47   22   23 2
    48   22   24 1
@<TRIPOS>MOLECULE
ZINC48194706
   38    40     0     0     0
SMALL
USER_CHARGES

@<TRIPOS>ATOM
      1 C1          1.0524   -0.3988   -0.8495 C.ar      1 <0>        -0.0646
      2 C2          2.2161    0.3533   -0.8425 C.ar      1 <0>        -0.1465
      3 C3          2.2980    1.4702   -0.0139 C.ar      1 <0>         0.1065
      4 N1          1.2787    1.8177    0.7631 N.ar      1 <0>        -0.4461
      5 C4          0.1593    1.1309    0.7848 C.ar      1 <0>         0.1418
      6 C5          0.0008   -0.0024   -0.0185 C.ar      1 <0>        -0.2092
      7 C6         -1.2639   -0.7719    0.0105 C.2       1 <0>         0.5779
      8 O1         -2.3251   -0.1924    0.1327 O.2       1 <0>        -0.5348
      9 N2         -1.2382   -2.1150   -0.0987 N.am      1 <0>        -0.6126
     10 C7          0.0342   -2.8543   -0.1121 C.3       1 <0>         0.0610
     11 C8         -0.0431   -3.9807    0.9241 C.3       1 <0>         0.0480
     12 O2         -1.2307   -4.7474    0.7051 O.3       1 <0>        -0.3705
     13 C9         -2.4378   -4.0001    0.8514 C.3       1 <0>         0.0845
     14 H1         -2.4543   -3.5426    1.8406 H         1 <0>         0.0596
     15 C10        -2.4848   -2.8969   -0.2030 C.3       1 <0>         0.1164
     16 H2         -3.3477   -2.2531   -0.0329 H         1 <0>         0.1098
     17 C11        -2.5415   -3.5270   -1.5971 C.3       1 <0>        -0.1237
     18 C12        -3.7748   -4.4237   -1.7099 C.3       1 <0>        -0.1167
     19 C13        -3.6866   -5.5385   -0.6648 C.3       1 <0>        -0.1178
     20 C14        -3.6512   -4.9127    0.7059 C.3       1 <0>        -0.1079
     21 C15         3.5384    2.2804    0.0010 C.2       1 <0>         0.5295
     22 O3          4.4814    1.9674   -0.7107 O.co2     1 <0>        -0.6762
     23 O4          3.6186    3.2618    0.7249 O.co2     1 <0>        -0.6526
     24 H3          0.9585   -1.2671   -1.4848 H         1 <0>         0.1346
     25 H4          3.0495    0.0768   -1.4713 H         1 <0>         0.1478
     26 H5         -0.6474    1.4449    1.4305 H         1 <0>         0.1561
     27 H6          0.2003   -3.2788   -1.1022 H         1 <0>         0.0796
     28 H7          0.8520   -2.1796    0.1413 H         1 <0>         0.1072
     29 H8          0.8297   -4.6261    0.8251 H         1 <0>         0.1088
     30 H9         -0.0667   -3.5520    1.9260 H         1 <0>         0.0568
     31 H10        -2.5959   -2.7396   -2.3487 H         1 <0>         0.0645
     32 H11        -1.6438   -4.1229   -1.7622 H         1 <0>         0.0722
     33 H12        -4.6728   -3.8312   -1.5349 H         1 <0>         0.0632
     34 H13        -3.8160   -4.8621   -2.7070 H         1 <0>         0.0656
     35 H14        -4.5588   -6.1868   -0.7493 H         1 <0>         0.0639
     36 H15        -2.7808   -6.1219   -0.8301 H         1 <0>         0.0721
     37 H16        -3.5953   -5.7101    1.4470 H         1 <0>         0.0723
     38 H17        -4.5607   -4.3340    0.8666 H         1 <0>         0.0792
@<TRIPOS>BOND
     1    1    6 ar
     2    1    2 ar
     3    1   24 1
     4    2    3 ar
     5    2   25 1
     6    3    4 ar
     7    3   21 1
     8    4    5 ar
     9    5    6 ar
    10    5   26 1
    11    6    7 1
    12    7    8 2
    13    7    9 am
    14    9   15 1
    15    9   10 1
    16   10   11 1
    17   10   27 1
    18   10   28 1
    19   11   12 1
    20   11   29 1
    21   11   30 1
    22   12   13 1
    23   13   14 1
    24   13   20 1
    25   13   15 1
    26   15   16 1
    27   15   17 1
    28   17   18 1
    29   17   31 1
    30   17   32 1
    31   18   19 1
    32   18   33 1
    33   18   34 1
    34   19   20 1
    35   19   35 1
    36   19   36 1
    37   20   37 1
    38   20   38 1
    39   21   22 2
    40   21   23 1
@<TRIPOS>MOLECULE
ZINC62960432
   41    43     0     0     0
SMALL
USER_CHARGES

@<TRIPOS>ATOM
      1 C1         -0.7978   -0.6872    2.4068 C.3       1 <0>        -0.1222
      2 C2          0.4445    0.2381    2.3942 C.3       1 <0>        -0.1245
      3 C3          1.5922   -0.7234    2.7933 C.3       1 <0>        -0.1208
      4 C4          1.2369   -2.0457    2.0882 C.3       1 <0>        -0.0581
      5 C5         -0.2788   -2.0260    1.8407 C.3       1 <0>        -0.1147
      6 C6          1.6044   -3.2245    2.9869 C.3       1 <0>        -0.1193
      7 C7          3.1109   -3.1988    3.2667 C.3       1 <0>         0.1366
      8 N1          3.8285   -3.1567    1.9852 N.am      1 <0>        -0.6251
      9 C8          3.4917   -2.1024    1.0190 C.3       1 <0>         0.0439
     10 C9          1.9820   -2.1373    0.7582 C.3       1 <0>        -0.1187
     11 C10         4.7791   -4.0689    1.7013 C.2       1 <0>         0.7527
     12 O1          5.4130   -4.5865    2.6006 O.2       1 <0>        -0.5878
     13 N2          5.0273   -4.4074    0.4206 N.am      1 <0>        -0.6143
     14 C11         5.5936   -5.7253    0.0599 C.3       1 <0>         0.2064
     15 S1          5.0592   -5.8756   -1.7019 S.3       1 <0>        -0.3262
     16 C12         5.0803   -4.0663   -2.0798 C.3       1 <0>        -0.0254
     17 C13         4.7466   -3.4987   -0.6782 C.3       1 <0>         0.0285
     18 H1          3.6886   -3.2383   -0.6501 H         1 <0>         0.0981
     19 C14         5.5482   -2.2390   -0.4737 C.2       1 <0>         0.4900
     20 O2          6.4034   -2.1948    0.3942 O.co2     1 <0>        -0.6609
     21 O3          5.3415   -1.2642   -1.1761 O.co2     1 <0>        -0.6841
     22 H2         -1.1642   -0.8200    3.4248 H         1 <0>         0.0609
     23 H3         -1.5822   -0.2814    1.7680 H         1 <0>         0.0599
     24 H4          0.6118    0.6464    1.3976 H         1 <0>         0.0666
     25 H5          0.3380    1.0376    3.1274 H         1 <0>         0.0613
     26 H6          2.5494   -0.3449    2.4347 H         1 <0>         0.0733
     27 H7          1.6160   -0.8616    3.8742 H         1 <0>         0.0642
     28 H8         -0.7529   -2.8597    2.3585 H         1 <0>         0.0612
     29 H9         -0.4837   -2.0842    0.7717 H         1 <0>         0.0637
     30 H10         1.0584   -3.1489    3.9273 H         1 <0>         0.0705
     31 H11         1.3429   -4.1576    2.4880 H         1 <0>         0.0629
     32 H12         3.3586   -2.3143    3.8535 H         1 <0>         0.0595
     33 H13         3.3960   -4.0961    3.8159 H         1 <0>         0.0802
     34 H14         3.7698   -1.1306    1.4268 H         1 <0>         0.0623
     35 H15         4.0279   -2.2768    0.0861 H         1 <0>         0.1601
     36 H16         1.7206   -3.0701    0.2584 H         1 <0>         0.0610
     37 H17         1.7025   -1.2946    0.1259 H         1 <0>         0.0719
     38 H18         6.6806   -5.7203    0.1408 H         1 <0>         0.0877
     39 H19         5.1606   -6.5182    0.6699 H         1 <0>         0.1042
     40 H20         6.0650   -3.7437   -2.4181 H         1 <0>         0.0983
     41 H21         4.3094   -3.8039   -2.8043 H         1 <0>         0.1162
@<TRIPOS>BOND
     1    1    5 1
     2    1    2 1
     3    1   22 1
     4    1   23 1
     5    2    3 1
     6    2   24 1
     7    2   25 1
     8    3    4 1
     9    3   26 1
    10    3   27 1
    11    4   10 1
    12    4    5 1
    13    4    6 1
    14    5   28 1
    15    5   29 1
    16    6    7 1
    17    6   30 1
    18    6   31 1
    19    7    8 1
    20    7   32 1
    21    7   33 1
    22    8    9 1
    23    8   11 am
    24    9   10 1
    25    9   34 1
    26    9   35 1
    27   10   36 1
    28   10   37 1
    29   11   12 2
    30   11   13 am
    31   13   17 1
    32   13   14 1
    33   14   15 1
    34   14   38 1
    35   14   39 1
    36   15   16 1
    37   16   17 1
    38   16   40 1
    39   16   41 1
    40   17   18 1
    41   17   19 1
    42   19   20 2
    43   19   21 1
@<TRIPOS>MOLECULE
ZINC13276445
   27    28     0     0     0
SMALL
USER_CHARGES
5-(2-bromophenyl)sulfanyl-2-nitro-benzoic acid
@<TRIPOS>ATOM
      1 C1          0.2233   -4.3287    3.9966 C.ar      1 <0>        -0.0825
      2 C2          0.1580   -5.6583    4.3723 C.ar      1 <0>        -0.1207
      3 C3          0.0688   -6.6484    3.4110 C.ar      1 <0>        -0.0745
      4 C4          0.0452   -6.3122    2.0710 C.ar      1 <0>        -0.0783
      5 C5          0.1107   -4.9768    1.6902 C.ar      1 <0>        -0.0752
      6 C6          0.2055   -3.9854    2.6592 C.ar      1 <0>        -0.1183
      7 S1          0.0808   -4.5428   -0.0173 S.3       1 <0>         0.0396
      8 C7          0.0396   -2.7813   -0.0087 C.ar      1 <0>        -0.1239
      9 C8          1.2217   -2.0574   -0.1236 C.ar      1 <0>        -0.0796
     10 C9          1.1946   -0.6758   -0.1183 C.ar      1 <0>        -0.0741
     11 C10        -0.0056   -0.0045    0.0014 C.ar      1 <0>        -0.0029
     12 C11        -1.1977   -0.7215    0.1231 C.ar      1 <0>        -0.0386
     13 C12        -1.1715   -2.1165    0.1120 C.ar      1 <0>        -0.0376
     14 C13        -2.4831   -0.0054    0.2569 C.2       1 <0>         0.4925
     15 O1         -2.6347    0.8095    1.1449 O.co2     1 <0>        -0.5882
     16 N1         -0.0284    1.4756    0.0069 N.pl3     1 <0>         0.0185
     17 O2          1.0168    2.1007    0.0262 O.2       1 <0>        -0.2018
     18 O3         -1.0922    2.0684   -0.0130 O.3       1 <0>        -0.0826
     19 Br1        -0.0768   -7.6667    0.7570 Br        1 <0>        -0.0352
     20 H1          0.2928   -3.5582    4.7502 H         1 <0>         0.1330
     21 H2          0.1770   -5.9239    5.4189 H         1 <0>         0.1340
     22 H3          0.0180   -7.6855    3.7079 H         1 <0>         0.1368
     23 H4          0.2614   -2.9472    2.3668 H         1 <0>         0.1307
     24 H5          2.1639   -2.5768   -0.2175 H         1 <0>         0.1506
     25 H6          2.1158   -0.1192   -0.2078 H         1 <0>         0.1550
     26 H7         -2.0906   -2.6765    0.2013 H         1 <0>         0.1540
     27 O4         -3.4868   -0.2561   -0.6057 O.co2     1 <0>        -0.7305
@<TRIPOS>BOND
     1    1    6 ar
     2    1    2 ar
     3    1   20 1
     4    2    3 ar
     5    2   21 1
     6    3    4 ar
     7    3   22 1
     8    4    5 ar
     9    4   19 1
    10    5    6 ar
    11    5    7 1
    12    6   23 1
    13    7    8 1
    14    8   13 ar
    15    8    9 ar
    16    9   10 ar
    17    9   24 1
    18   10   11 ar
    19   10   25 1
    20   11   12 ar
    21   11   16 1
    22   12   13 ar
    23   12   14 1
    24   13   26 1
    25   14   15 2
    26   14   27 1
    27   16   17 2
    28   16   18 1
@<TRIPOS>MOLECULE
ZINC34020244
   43    46     0     0     0
SMALL
USER_CHARGES

@<TRIPOS>ATOM
      1 C1         -0.0178    1.4608    0.0101 C.3       1 <0>         0.0828
      2 N1          0.0021   -0.0041    0.0020 N.pl3     1 <0>        -0.4626
      3 C2          0.0078   -0.7976   -1.1215 C.2       1 <0>         0.1363
      4 C3          0.0277   -2.1044   -0.7505 C.2       1 <0>        -0.1371
      5 C4          0.0351   -2.1506    0.6617 C.ar      1 <0>        -0.1420
      6 C5          0.0241   -0.8112    1.1189 C.ar      1 <0>         0.2729
      7 N2          0.0331   -0.5553    2.4130 N.ar      1 <0>        -0.4568
      8 C6          0.0555   -1.5317    3.3132 C.ar      1 <0>         0.1219
      9 C7          0.0705   -2.8764    2.9264 C.ar      1 <0>        -0.1566
     10 C8          0.0541   -3.1955    1.5952 C.ar      1 <0>        -0.0561
     11 C9          0.0652   -1.1920    4.7485 C.2       1 <0>         0.5335
     12 O1          0.0527   -0.0203    5.0997 O.co2     1 <0>        -0.6619
     13 O2          0.0857   -2.0818    5.5875 O.co2     1 <0>        -0.6799
     14 C10         0.0398   -3.2916   -1.6786 C.3       1 <0>        -0.0086
     15 C11        -1.1964   -4.1549   -1.4186 C.3       1 <0>        -0.1112
     16 C12        -1.1841   -5.3603   -2.3608 C.3       1 <0>        -0.1177
     17 C13         0.0780   -6.1888   -2.1127 C.3       1 <0>        -0.1201
     18 C14         1.3141   -5.3255   -2.3727 C.3       1 <0>        -0.1180
     19 C15         1.3019   -4.1202   -1.4305 C.3       1 <0>        -0.1130
     20 C16        -0.0062   -0.3054   -2.5149 C.2       1 <0>        -0.1198
     21 C17        -0.8474    0.7631   -3.0699 C.2       1 <0>        -0.2049
     22 C18        -0.5141    0.8610   -4.3671 C.2       1 <0>        -0.0338
     23 O3          0.4407   -0.0402   -4.6437 O.3       1 <0>        -0.1794
     24 C19         0.7624   -0.7441   -3.5497 C.2       1 <0>        -0.0074
     25 H1          1.0048    1.8381    0.0023 H         1 <0>         0.0652
     26 H2         -0.5450    1.8219   -0.8730 H         1 <0>         0.0772
     27 H3         -0.5280    1.8123    0.9069 H         1 <0>         0.0882
     28 H4          0.0886   -3.6569    3.6727 H         1 <0>         0.1411
     29 H5          0.0665   -4.2261    1.2726 H         1 <0>         0.1252
     30 H6          0.0300   -2.9451   -2.7120 H         1 <0>         0.0714
     31 H7         -1.1866   -4.5015   -0.3852 H         1 <0>         0.0664
     32 H8         -2.0955   -3.5646   -1.5954 H         1 <0>         0.0594
     33 H9         -2.0647   -5.9753   -2.1756 H         1 <0>         0.0591
     34 H10        -1.1938   -5.0137   -3.3942 H         1 <0>         0.0583
     35 H11         0.0877   -6.5353   -1.0793 H         1 <0>         0.0623
     36 H12         0.0867   -7.0475   -2.7840 H         1 <0>         0.0570
     37 H13         2.2132   -5.9158   -2.1959 H         1 <0>         0.0597
     38 H14         1.3044   -4.9790   -3.4061 H         1 <0>         0.0585
     39 H15         2.1825   -3.5052   -1.6157 H         1 <0>         0.0594
     40 H16         1.3116   -4.4667   -0.3971 H         1 <0>         0.0677
     41 H17        -1.5843    1.3503   -2.5422 H         1 <0>         0.1511
     42 H18        -0.9454    1.5541   -5.0742 H         1 <0>         0.2040
     43 H19         1.5040   -1.5276   -3.4980 H         1 <0>         0.2083
@<TRIPOS>BOND
     1    1    2 1
     2    1   25 1
     3    1   26 1
     4    1   27 1
     5    2    6 1
     6    2    3 1
     7    3    4 2
     8    3   20 1
     9    4    5 1
    10    4   14 1
    11    5   10 ar
    12    5    6 ar
    13    6    7 ar
    14    7    8 ar
    15    8    9 ar
    16    8   11 1
    17    9   10 ar
    18    9   28 1
    19   10   29 1
    20   11   12 2
    21   11   13 1
    22   14   19 1
    23   14   15 1
    24   14   30 1
    25   15   16 1
    26   15   31 1
    27   15   32 1
    28   16   17 1
    29   16   33 1
    30   16   34 1
    31   17   18 1
    32   17   35 1
    33   17   36 1
    34   18   19 1
    35   18   37 1
    36   18   38 1
    37   19   39 1
    38   19   40 1
    39   20   24 2
    40   20   21 1
    41   21   22 2
    42   21   41 1
    43   22   23 1
    44   22   42 1
    45   23   24 1
    46   24   43 1
@<TRIPOS>MOLECULE
ZINC43226051
   36    38     0     0     0
SMALL
USER_CHARGES

@<TRIPOS>ATOM
      1 C1         -0.4727   -2.0244   -0.6311 C.3       1 <0>        -0.1351
      2 C2         -0.0565   -0.6424   -0.1234 C.3       1 <0>        -0.0664
      3 C3          0.5966   -0.7793    1.2277 C.2       1 <0>         0.1098
      4 C4          1.9532   -0.8910    1.4687 C.2       1 <0>        -0.2495
      5 C5          2.1061   -0.9988    2.9243 C.2       1 <0>         0.1501
      6 N1          0.8999   -0.9483    3.4417 N.2       1 <0>        -0.2980
      7 N2         -0.0352   -0.8086    2.4124 N.pl3     1 <0>        -0.3389
      8 C6         -1.4220   -0.7161    2.5895 C.ar      1 <0>         0.1783
      9 C7         -2.1514    0.2321    1.8845 C.ar      1 <0>        -0.1192
     10 C8         -3.5183    0.3210    2.0604 C.ar      1 <0>        -0.0891
     11 C9         -4.1612   -0.5339    2.9386 C.ar      1 <0>        -0.0451
     12 C10        -3.4364   -1.4795    3.6428 C.ar      1 <0>        -0.0921
     13 C11        -2.0702   -1.5762    3.4661 C.ar      1 <0>        -0.1025
     14 Cl1        -5.8795   -0.4196    3.1575 Cl        1 <0>        -0.0714
     15 C12         3.3802   -1.1388    3.6693 C.ar      1 <0>        -0.0658
     16 C13         3.5380   -0.5444    4.9251 C.ar      1 <0>        -0.0544
     17 C14         4.7468   -0.7046    5.5798 C.ar      1 <0>        -0.1994
     18 C15         5.7507   -1.4406    4.9766 C.ar      1 <0>         0.0973
     19 N3          5.5729   -1.9894    3.7905 N.ar      1 <0>        -0.4938
     20 C16         4.4382   -1.8697    3.1320 C.ar      1 <0>         0.1814
     21 C17         3.0274   -0.9005    0.4675 C.2       1 <0>         0.5523
     22 O1          2.7562   -0.8025   -0.7218 O.co2     1 <0>        -0.6807
     23 O2          4.1938   -1.0063    0.8225 O.co2     1 <0>        -0.6754
     24 H1         -1.1970   -2.4611    0.0565 H         1 <0>         0.0402
     25 H2         -0.9223   -1.9282   -1.6194 H         1 <0>         0.0598
     26 H3          0.4046   -2.6684   -0.6921 H         1 <0>         0.0653
     27 H4          0.6484   -0.1950   -0.8242 H         1 <0>         0.1200
     28 H5         -0.9375   -0.0061   -0.0384 H         1 <0>         0.0643
     29 H6         -1.6502    0.8998    1.1993 H         1 <0>         0.1438
     30 H7         -4.0860    1.0586    1.5126 H         1 <0>         0.1413
     31 H8         -3.9403   -2.1450    4.3280 H         1 <0>         0.1396
     32 H9         -1.5057   -2.3174    4.0123 H         1 <0>         0.1400
     33 H10         2.7371    0.0254    5.3727 H         1 <0>         0.1280
     34 H11         4.9047   -0.2595    6.5510 H         1 <0>         0.1282
     35 H12         6.6952   -1.5675    5.4847 H         1 <0>         0.1480
     36 H13         4.3286   -2.3379    2.1649 H         1 <0>         0.1891
@<TRIPOS>BOND
     1    1    2 1
     2    1   24 1
     3    1   25 1
     4    1   26 1
     5    2    3 1
     6    2   27 1
     7    2   28 1
     8    3    7 1
     9    3    4 2
    10    4    5 1
    11    4   21 1
    12    5    6 2
    13    5   15 1
    14    6    7 1
    15    7    8 1
    16    8   13 ar
    17    8    9 ar
    18    9   10 ar
    19    9   29 1
    20   10   11 ar
    21   10   30 1
    22   11   12 ar
    23   11   14 1
    24   12   13 ar
    25   12   31 1
    26   13   32 1
    27   15   20 ar
    28   15   16 ar
    29   16   17 ar
    30   16   33 1
    31   17   18 ar
    32   17   34 1
    33   18   19 ar
    34   18   35 1
    35   19   20 ar
    36   20   36 1
    37   21   22 2
    38   21   23 1
@<TRIPOS>MOLECULE
ZINC63653022
   39    41     0     0     0
SMALL
USER_CHARGES

@<TRIPOS>ATOM
      1 C1          2.2503    0.3336    0.9641 C.3       1 <0>        -0.0913
      2 C2          1.2047   -0.6291    0.4630 C.ar      1 <0>        -0.1253
      3 C3          1.4082   -1.3186   -0.7162 C.ar      1 <0>        -0.1149
      4 C4          0.4494   -2.2022   -1.1766 C.ar      1 <0>        -0.1811
      5 C5         -0.7158   -2.3991   -0.4584 C.ar      1 <0>        -0.1112
      6 C6         -0.9257   -1.7129    0.7216 C.ar      1 <0>        -0.1598
      7 C7          0.0378   -0.8284    1.1897 C.ar      1 <0>         0.2449
      8 N1         -0.1689   -0.1368    2.3855 N.2       1 <0>        -1.1173
      9 S1         -0.1861   -0.9569    3.8241 S.o2      1 <0>         2.6208
     10 O1         -1.3209   -1.8115    3.7908 O.2       1 <0>        -1.0197
     11 O2          1.1318   -1.4479    4.0273 O.2       1 <0>        -1.0270
     12 C8         -0.4841    0.2267    5.0949 C.2       1 <0>        -0.6473
     13 C9         -1.6651    0.6423    5.6144 C.2       1 <0>        -0.0532
     14 C10        -1.6584    1.5921    6.6186 C.2       1 <0>        -0.1524
     15 C11        -0.4711    2.0799    7.0542 C.2       1 <0>        -0.1377
     16 S2          0.6914    1.1839    6.0379 S.3       1 <0>         0.1736
     17 C12        -0.2020    3.1075    8.1231 C.3       1 <0>         0.0481
     18 H1         -1.0880    3.7168    8.3020 H         1 <0>         0.1635
     19 C13         0.2585    2.4395    9.4066 C.2       1 <0>        -0.1421
     20 C14         1.4856    2.9276    9.6005 C.2       1 <0>        -0.0415
     21 N2          1.8203    3.7903    8.6156 N.2       1 <0>        -0.1566
     22 N3          0.9462    3.9534    7.7551 N.2       1 <0>        -0.1418
     23 C15         2.3770    2.5657   10.7605 C.3       1 <0>        -0.0856
     24 C16        -2.1960   -1.9276    1.5034 C.3       1 <0>        -0.0922
     25 H2          2.9557   -0.1967    1.6038 H         1 <0>         0.0532
     26 H3          2.7823    0.7657    0.1165 H         1 <0>         0.0401
     27 H4          1.7690    1.1282    1.5343 H         1 <0>         0.0743
     28 H5          2.3171   -1.1672   -1.2795 H         1 <0>         0.1024
     29 H6          0.6107   -2.7396   -2.0995 H         1 <0>         0.1012
     30 H7         -1.4627   -3.0899   -0.8208 H         1 <0>         0.1010
     31 H8         -2.5973    0.2377    5.2489 H         1 <0>         0.1473
     32 H9         -2.5854    1.9407    7.0495 H         1 <0>         0.1378
     33 H10        -0.2816    1.7337   10.0203 H         1 <0>         0.1755
     34 H11         2.9868    1.7023   10.4945 H         1 <0>         0.0811
     35 H12         3.0253    3.4093   10.9975 H         1 <0>         0.0793
     36 H13         1.7636    2.3238   11.6284 H         1 <0>         0.0764
     37 H14        -2.0871   -2.8061    2.1395 H         1 <0>         0.0716
     38 H15        -2.3938   -1.0528    2.1228 H         1 <0>         0.0731
     39 H16        -3.0261   -2.0794    0.8134 H         1 <0>         0.0328
@<TRIPOS>BOND
     1    1    2 1
     2    1   25 1
     3    1   26 1
     4    1   27 1
     5    2    7 ar
     6    2    3 ar
     7    3    4 ar
     8    3   28 1
     9    4    5 ar
    10    4   29 1
    11    5    6 ar
    12    5   30 1
    13    6    7 ar
    14    6   24 1
    15    7    8 1
    16    8    9 1
    17    9   10 2
    18    9   11 2
    19    9   12 1
    20   12   16 1
    21   12   13 2
    22   13   14 1
    23   13   31 1
    24   14   15 2
    25   14   32 1
    26   15   16 1
    27   15   17 1
    28   17   18 1
    29   17   22 1
    30   17   19 1
    31   19   20 2
    32   19   33 1
    33   20   21 1
    34   20   23 1
    35   21   22 2
    36   23   34 1
    37   23   35 1
    38   23   36 1
    39   24   37 1
    40   24   38 1
    41   24   39 1
@<TRIPOS>MOLECULE
ZINC66255127
   43    45     0     0     0
SMALL
USER_CHARGES

@<TRIPOS>ATOM
      1 C1         -0.0187    1.5258    0.0104 C.3       1 <0>        -0.1390
      2 C2          0.0021   -0.0041    0.0020 C.3       1 <0>        -0.0349
      3 C3          0.7421   -0.5109    1.2415 C.3       1 <0>        -0.1388
      4 C4         -1.4333   -0.5336    0.0129 C.3       1 <0>        -0.1455
      5 C5          0.7074   -0.4901   -1.2379 C.ar      1 <0>        -0.0290
      6 C6          0.0361   -1.2843   -2.1485 C.ar      1 <0>        -0.1463
      7 C7          0.6831   -1.7301   -3.2859 C.ar      1 <0>        -0.0167
      8 C8          2.0014   -1.3813   -3.5127 C.ar      1 <0>        -0.6250
      9 C9          2.6724   -0.5863   -2.6025 C.ar      1 <0>        -0.0170
     10 C10         2.0241   -0.1370   -1.4673 C.ar      1 <0>        -0.1408
     11 S1          2.8264   -1.9505   -4.9618 S.o2      1 <0>         2.6189
     12 O1          4.2169   -1.9365   -4.6694 O.2       1 <0>        -1.0000
     13 O2          2.1477   -3.1268   -5.3801 O.2       1 <0>        -1.0000
     14 N1          2.5798   -0.8164   -6.1431 N.2       1 <0>        -0.9994
     15 C11         3.1165   -1.0009   -7.3971 C.2       1 <0>         0.4429
     16 N2          3.0267   -0.2039   -8.4514 N.2       1 <0>        -0.6003
     17 C12         3.5904   -0.4976   -9.5976 C.2       1 <0>         0.2238
     18 C13         4.2876   -1.7127   -9.6036 C.2       1 <0>        -0.4211
     19 S2          4.0500   -2.2913   -7.9518 S.3       1 <0>        -0.0242
     20 C14         4.9738   -2.2423  -10.6892 C.2       1 <0>         0.4426
     21 O3          5.5370   -3.3168  -10.6200 O.2       1 <0>        -0.5100
     22 C15         4.9892   -1.4212  -11.9657 C.3       1 <0>        -0.1505
     23 C16         3.6963   -0.6111  -12.0646 C.3       1 <0>        -0.1097
     24 C17         3.5480    0.3359  -10.8700 C.3       1 <0>        -0.0475
     25 H1          1.0039    1.9031    0.0027 H         1 <0>         0.0589
     26 H2         -0.5459    1.8868   -0.8726 H         1 <0>         0.0586
     27 H3         -0.5289    1.8773    0.9072 H         1 <0>         0.0588
     28 H4          0.2319   -0.1594    2.1383 H         1 <0>         0.0591
     29 H5          0.7568   -1.6008    1.2356 H         1 <0>         0.0573
     30 H6          1.7647   -0.1336    1.2338 H         1 <0>         0.0588
     31 H7         -1.9605   -0.1726   -0.8702 H         1 <0>         0.0610
     32 H8         -1.4185   -1.6235    0.0069 H         1 <0>         0.0600
     33 H9         -1.9435   -0.1821    0.9097 H         1 <0>         0.0583
     34 H10        -0.9938   -1.5568   -1.9713 H         1 <0>         0.1328
     35 H11         0.1588   -2.3512   -3.9970 H         1 <0>         0.1381
     36 H12         3.7024   -0.3141   -2.7796 H         1 <0>         0.1381
     37 H13         2.5473    0.4872   -0.7580 H         1 <0>         0.1274
     38 H14         5.8427   -0.7434  -11.9516 H         1 <0>         0.0925
     39 H15         5.0677   -2.0869  -12.8252 H         1 <0>         0.0870
     40 H16         3.7096   -0.0269  -12.9847 H         1 <0>         0.0758
     41 H17         2.8471   -1.2940  -12.0875 H         1 <0>         0.0686
     42 H18         2.5956    0.8622  -10.9336 H         1 <0>         0.0878
     43 H19         4.3671    1.0551  -10.8663 H         1 <0>         0.0884
@<TRIPOS>BOND
     1    1    2 1
     2    1   25 1
     3    1   26 1
     4    1   27 1
     5    2    3 1
     6    2    4 1
     7    2    5 1
     8    3   28 1
     9    3   29 1
    10    3   30 1
    11    4   31 1
    12    4   32 1
    13    4   33 1
    14    5   10 ar
    15    5    6 ar
    16    6    7 ar
    17    6   34 1
    18    7    8 ar
    19    7   35 1
    20    8    9 ar
    21    8   11 1
    22    9   10 ar
    23    9   36 1
    24   10   37 1
    25   11   12 2
    26   11   13 2
    27   11   14 1
    28   14   15 1
    29   15   19 1
    30   15   16 2
    31   16   17 1
    32   17   24 1
    33   17   18 2
    34   18   19 1
    35   18   20 1
    36   20   21 2
    37   20   22 1
    38   22   23 1
    39   22   38 1
    40   22   39 1
    41   23   24 1
    42   23   40 1
    43   23   41 1
    44   24   42 1
    45   24   43 1
@<TRIPOS>MOLECULE
ZINC16552098
   38    41     0     0     0
SMALL
USER_CHARGES
(1S,4R,5R,6R)-6-(indan-5-ylcarbamoyl)-7-oxabicyclo[2.2.1]hept-2-ene-5-carboxylic acid
@<TRIPOS>ATOM
      1 C1          1.0882    3.0255    0.6246 C.ar      1 <0>        -0.1204
      2 C2         -0.1187    3.6945    0.6442 C.ar      1 <0>        -0.0881
      3 C3         -1.2385    3.1340    0.0520 C.ar      1 <0>        -0.1212
      4 C4         -1.1476    1.9009   -0.5683 C.ar      1 <0>        -0.0836
      5 C5          0.0588    1.2243   -0.5854 C.ar      1 <0>        -0.1365
      6 C6          1.1811    1.7849    0.0081 C.ar      1 <0>         0.1560
      7 N1          2.4021    1.1019   -0.0144 N.am      1 <0>        -0.6784
      8 C7          3.5566    1.7888   -0.1235 C.2       1 <0>         0.5348
      9 O1          3.5435    3.0016   -0.1175 O.2       1 <0>        -0.5115
     10 C8          4.8637    1.0499   -0.2529 C.3       1 <0>        -0.1323
     11 H1          5.0053    0.3630    0.5815 H         1 <0>         0.1337
     12 C9          4.9465    0.2967   -1.6175 C.3       1 <0>         0.1007
     13 H2          4.0460   -0.2400   -1.9159 H         1 <0>         0.1263
     14 C10         6.2227   -0.5443   -1.5313 C.2       1 <0>        -0.2007
     15 C11         7.2358    0.3000   -1.6260 C.2       1 <0>        -0.1451
     16 C12         6.6259    1.6961   -1.7745 C.3       1 <0>         0.1061
     17 H3          7.2753    2.4509   -2.2180 H         1 <0>         0.1355
     18 C13         6.0531    2.0411   -0.3642 C.3       1 <0>        -0.1405
     19 H4          5.7053    3.0735   -0.3265 H         1 <0>         0.1069
     20 C14         7.0751    1.7799    0.7121 C.2       1 <0>         0.4777
     21 O2          6.8979    0.8901    1.5102 O.co2     1 <0>        -0.6332
     22 O3          5.3944    1.3756   -2.5065 O.3       1 <0>        -0.3695
     23 C15        -2.4955    1.5150   -1.1391 C.3       1 <0>        -0.0794
     24 C16        -3.3030    2.8292   -1.1923 C.3       1 <0>        -0.1203
     25 C17        -2.6543    3.6585   -0.0586 C.3       1 <0>        -0.0785
     26 H5          1.9586    3.4658    1.0883 H         1 <0>         0.1422
     27 H6         -0.1906    4.6595    1.1238 H         1 <0>         0.1214
     28 H7          0.1286    0.2594   -1.0656 H         1 <0>         0.1218
     29 H8          2.4177    0.1340    0.0485 H         1 <0>         0.4097
     30 H9          6.2835   -1.6163   -1.4152 H         1 <0>         0.1407
     31 H10         8.2870    0.0531   -1.6032 H         1 <0>         0.1402
     32 H11        -2.3778    1.1026   -2.1412 H         1 <0>         0.0730
     33 H12        -2.9895    0.7937   -0.4881 H         1 <0>         0.0783
     34 H13        -3.1832    3.3187   -2.1588 H         1 <0>         0.0721
     35 H14        -4.3558    2.6461   -0.9774 H         1 <0>         0.0739
     36 H15        -3.1858    3.5138    0.8820 H         1 <0>         0.0774
     37 H16        -2.6464    4.7139   -0.3309 H         1 <0>         0.0712
     38 O4          8.1821    2.5355    0.7842 O.co2     1 <0>        -0.7605
@<TRIPOS>BOND
     1    1    6 ar
     2    1    2 ar
     3    1   26 1
     4    2    3 ar
     5    2   27 1
     6    3   25 1
     7    3    4 ar
     8    4    5 ar
     9    4   23 1
    10    5    6 ar
    11    5   28 1
    12    6    7 1
    13    7    8 am
    14    7   29 1
    15    8    9 2
    16    8   10 1
    17   10   11 1
    18   10   18 1
    19   10   12 1
    20   12   13 1
    21   12   22 1
    22   12   14 1
    23   14   15 2
    24   14   30 1
    25   15   16 1
    26   15   31 1
    27   16   17 1
    28   16   18 1
    29   16   22 1
    30   18   19 1
    31   18   20 1
    32   20   21 2
    33   20   38 1
    34   23   24 1
    35   23   32 1
    36   23   33 1
    37   24   25 1
    38   24   34 1
    39   24   35 1
    40   25   36 1
    41   25   37 1
@<TRIPOS>MOLECULE
ZINC37576510
   31    32     0     0     0
SMALL
USER_CHARGES

@<TRIPOS>ATOM
      1 C1         -0.0184    1.5028    0.0103 C.3       1 <0>        -0.1151
      2 C2          0.0021   -0.0041    0.0020 C.ar      1 <0>        -0.0503
      3 C3          0.0058   -0.6878   -1.2009 C.ar      1 <0>        -0.1405
      4 C4          0.0245   -2.0708   -1.2171 C.ar      1 <0>        -0.0246
      5 C5          0.0401   -2.7776   -0.0320 C.ar      1 <0>        -0.6163
      6 C6          0.0369   -2.0942    1.1843 C.ar      1 <0>         0.1282
      7 C7          0.0228   -0.6987    1.1937 C.ar      1 <0>        -0.1274
      8 C8          0.0525   -2.8215    2.4177 C.1       1 <0>        -0.1383
      9 C9          0.0653   -3.4177    3.4290 C.1       1 <0>        -0.1135
     10 C10         0.0813   -4.1653    4.6969 C.3       1 <0>         0.1953
     11 O1          0.0744   -3.2468    5.7916 O.3       1 <0>        -0.5454
     12 S1          0.0633   -4.5393   -0.0549 S.o2      1 <0>         2.6332
     13 O2         -0.9519   -4.9705    0.8410 O.2       1 <0>        -0.9984
     14 O3          0.0884   -4.9274   -1.4216 O.2       1 <0>        -1.0155
     15 N1          1.5070   -5.0184    0.5998 N.2       1 <0>        -1.0205
     16 C11         1.8039   -6.3678    0.7106 C.2       1 <0>         0.4116
     17 N2          1.0710   -7.3990    0.3476 N.2       1 <0>        -0.6688
     18 C12         1.5009   -8.6363    0.5223 C.2       1 <0>         0.1022
     19 C13         2.7220   -8.7900    1.0882 C.2       1 <0>        -0.3525
     20 S2          3.1921   -7.0854    1.3352 S.3       1 <0>         0.0110
     21 H1          1.0042    1.8801    0.0026 H         1 <0>         0.0746
     22 H2         -0.5455    1.8639   -0.8728 H         1 <0>         0.0694
     23 H3         -0.5286    1.8543    0.9071 H         1 <0>         0.0682
     24 H4         -0.0064   -0.1393   -2.1312 H         1 <0>         0.1300
     25 H5          0.0265   -2.5986   -2.1594 H         1 <0>         0.1442
     26 H6          0.0245   -0.1638    2.1319 H         1 <0>         0.1299
     27 H7         -0.8001   -4.8042    4.7531 H         1 <0>         0.0691
     28 H8          0.9797   -4.7806    4.7445 H         1 <0>         0.0704
     29 H9          0.0842   -3.6706    6.6607 H         1 <0>         0.3790
     30 H10         0.9049   -9.4872    0.2272 H         1 <0>         0.1427
     31 H11         3.2636   -9.6946    1.3222 H         1 <0>         0.1681
@<TRIPOS>BOND
     1    1    2 1
     2    1   21 1
     3    1   22 1
     4    1   23 1
     5    2    7 ar
     6    2    3 ar
     7    3    4 ar
     8    3   24 1
     9    4    5 ar
    10    4   25 1
    11    5    6 ar
    12    5   12 1
    13    6    7 ar
    14    6    8 1
    15    7   26 1
    16    8    9 3
    17    9   10 1
    18   10   11 1
    19   10   27 1
    20   10   28 1
    21   11   29 1
    22   12   13 2
    23   12   14 2
    24   12   15 1
    25   15   16 1
    26   16   20 1
    27   16   17 2
    28   17   18 1
    29   18   19 2
    30   18   30 1
    31   19   20 1
    32   19   31 1
@<TRIPOS>MOLECULE
ZINC41189184
   31    33     0     0     0
SMALL
USER_CHARGES

@<TRIPOS>ATOM
      1 C1          0.1534    1.3720    0.6373 C.ar      1 <0>        -0.1076
      2 C2          1.1729    2.0869    0.0358 C.ar      1 <0>        -0.1194
      3 C3          2.2144    1.4228   -0.5856 C.ar      1 <0>        -0.1332
      4 C4          2.2395    0.0401   -0.6068 C.ar      1 <0>         0.0629
      5 C5          1.2154   -0.6809   -0.0020 C.ar      1 <0>         0.1304
      6 C6          0.1717   -0.0092    0.6202 C.ar      1 <0>        -0.1104
      7 N1          1.2364   -2.0799   -0.0214 N.am      1 <0>        -0.6526
      8 C7          0.0856   -2.7728    0.0880 C.2       1 <0>         0.5856
      9 O1         -0.9780   -2.1855    0.1023 O.2       1 <0>        -0.5154
     10 C8          0.1174   -4.2525    0.1910 C.ar      1 <0>         0.1589
     11 C9         -1.0643   -4.9769    0.3043 C.ar      1 <0>        -0.2827
     12 C10        -0.9803   -6.3743    0.3983 C.ar      1 <0>         0.2746
     13 N2          0.2206   -6.9513    0.3756 N.ar      1 <0>        -0.5539
     14 C11         1.3197   -6.2238    0.2664 C.ar      1 <0>         0.5550
     15 N3          1.2792   -4.9067    0.1707 N.ar      1 <0>        -0.5685
     16 O2          2.5220   -6.8478    0.2470 O.3       1 <0>        -0.6732
     17 C12        -2.2019   -7.1915    0.5207 C.2       1 <0>        -0.0889
     18 C13        -2.3234   -8.5533    0.6287 C.2       1 <0>        -0.1274
     19 C14        -3.5815   -9.0986    0.7326 C.2       1 <0>        -0.1539
     20 C15        -4.6634   -8.2751    0.7252 C.2       1 <0>        -0.1881
     21 S1         -3.9071   -6.6650    0.5748 S.3       1 <0>         0.0657
     22 F1          3.2568   -0.6090   -1.2142 F         1 <0>        -0.1357
     23 H1         -0.6562    1.8943    1.1252 H         1 <0>         0.1311
     24 H2          1.1554    3.1666    0.0511 H         1 <0>         0.1303
     25 H3          3.0087    1.9841   -1.0550 H         1 <0>         0.1365
     26 H4         -0.6250   -0.5660    1.0907 H         1 <0>         0.1561
     27 H5          2.0793   -2.5511   -0.1137 H         1 <0>         0.4298
     28 H6         -2.0215   -4.4770    0.3199 H         1 <0>         0.1325
     29 H7         -1.4477   -9.1854    0.6317 H         1 <0>         0.1442
     30 H8         -3.7087  -10.1677    0.8186 H         1 <0>         0.1328
     31 H9         -5.7106   -8.5293    0.7968 H         1 <0>         0.1843
@<TRIPOS>BOND
     1    1    6 ar
     2    1    2 ar
     3    1   23 1
     4    2    3 ar
     5    2   24 1
     6    3    4 ar
     7    3   25 1
     8    4    5 ar
     9    4   22 1
    10    5    6 ar
    11    5    7 1
    12    6   26 1
    13    7    8 am
    14    7   27 1
    15    8    9 2
    16    8   10 1
    17   10   11 ar
    18   10   15 ar
    19   11   12 ar
    20   11   28 1
    21   12   13 ar
    22   12   17 1
    23   13   14 ar
    24   14   16 1
    25   14   15 ar
    26   17   21 1
    27   17   18 2
    28   18   19 1
    29   18   29 1
    30   19   20 2
    31   19   30 1
    32   20   21 1
    33   20   31 1
@<TRIPOS>MOLECULE
ZINC16363294
   34    36     0     0     0
SMALL
USER_CHARGES

@<TRIPOS>ATOM
      1 C1         -0.5391    1.1792    2.5070 C.3       1 <0>        -0.0604
      2 C2         -0.5472   -0.3165    2.3227 C.2       1 <0>         0.0602
      3 N1         -1.3720   -1.0402    1.6115 N.2       1 <0>        -0.4965
      4 C3         -1.2514   -2.3586    1.5449 C.2       1 <0>         0.1493
      5 C4         -0.2222   -2.9145    2.2575 C.2       1 <0>        -0.2416
      6 S1          0.5076   -1.4525    2.9770 S.3       1 <0>         0.0701
      7 C5         -2.1817   -3.1877    0.7419 C.ar      1 <0>        -0.2078
      8 C6         -1.9721   -4.5582    0.5922 C.ar      1 <0>         0.1794
      9 N2         -2.8238   -5.2649   -0.1319 N.ar      1 <0>        -0.5328
     10 C7         -3.8682   -4.6921   -0.7143 C.ar      1 <0>         0.4778
     11 N3         -4.1097   -3.3949   -0.6022 N.ar      1 <0>        -0.5141
     12 C8         -3.3051   -2.6130    0.1139 C.ar      1 <0>         0.2594
     13 C9         -3.5811   -1.1656    0.2429 C.ar      1 <0>        -0.0389
     14 C10        -3.0141   -0.2618   -0.6566 C.ar      1 <0>        -0.0251
     15 C11        -3.2731    1.0857   -0.5338 C.ar      1 <0>        -0.2106
     16 C12        -4.0983    1.5493    0.4842 C.ar      1 <0>         0.1355
     17 C13        -4.6659    0.6586    1.3831 C.ar      1 <0>        -0.1780
     18 C14        -4.4170   -0.6982    1.2646 C.ar      1 <0>         0.1706
     19 O1         -4.9770   -1.5723    2.1398 O.3       1 <0>        -0.4869
     20 O2         -4.3493    2.8791    0.5993 O.3       1 <0>        -0.3198
     21 C15        -3.7326    3.7410   -0.3593 C.3       1 <0>         0.0293
     22 S2         -4.9676   -5.6867   -1.6665 S.3       1 <0>        -0.7808
     23 H1          0.2872    1.4604    3.1598 H         1 <0>         0.0798
     24 H2         -0.4181    1.6640    1.5382 H         1 <0>         0.0864
     25 H3         -1.4807    1.4949    2.9562 H         1 <0>         0.0880
     26 H4          0.0694   -3.9499    2.3542 H         1 <0>         0.1932
     27 H5         -1.1249   -5.0364    1.0613 H         1 <0>         0.1511
     28 H6         -2.3722   -0.6186   -1.4485 H         1 <0>         0.1190
     29 H7         -2.8333    1.7840   -1.2304 H         1 <0>         0.1251
     30 H8         -5.3062    1.0230    2.1728 H         1 <0>         0.1310
     31 H9         -4.4399   -1.7399    2.9262 H         1 <0>         0.3846
     32 H10        -2.6491    3.6407   -0.2940 H         1 <0>         0.0536
     33 H11        -4.0632    3.4661   -1.3609 H         1 <0>         0.0543
     34 H12        -4.0149    4.7736   -0.1540 H         1 <0>         0.0956
@<TRIPOS>BOND
     1    1    2 1
     2    1   23 1
     3    1   24 1
     4    1   25 1
     5    2    6 1
     6    2    3 2
     7    3    4 1
     8    4    5 2
     9    4    7 1
    10    5    6 1
    11    5   26 1
    12    7    8 ar
    13    7   12 ar
    14    8    9 ar
    15    8   27 1
    16    9   10 ar
    17   10   22 1
    18   10   11 ar
    19   11   12 ar
    20   12   13 1
    21   13   18 ar
    22   13   14 ar
    23   14   15 ar
    24   14   28 1
    25   15   16 ar
    26   15   29 1
    27   16   17 ar
    28   16   20 1
    29   17   18 ar
    30   17   30 1
    31   18   19 1
    32   19   31 1
    33   20   21 1
    34   21   32 1
    35   21   33 1
    36   21   34 1
@<TRIPOS>MOLECULE
ZINC44916368
   37    40     0     0     0
SMALL
USER_CHARGES

@<TRIPOS>ATOM
      1 C1         -0.0167    1.3786    0.0096 C.ar      1 <0>        -0.1266
      2 C2          1.1696    2.0891    0.0021 C.ar      1 <0>        -0.1036
      3 C3          2.3774    1.4191   -0.0134 C.ar      1 <0>        -0.1208
      4 C4          2.3995    0.0308   -0.0211 C.ar      1 <0>         0.1319
      5 C5          1.2066   -0.6797   -0.0130 C.ar      1 <0>        -0.1261
      6 C6          0.0021   -0.0041    0.0020 C.ar      1 <0>        -0.1053
      7 N1          3.6231   -0.6517   -0.0373 N.pl3     1 <0>        -0.3800
      8 C7          4.6371   -0.3956   -0.8929 C.2       1 <0>         0.0163
      9 C8          5.6783   -1.2647   -0.6154 C.2       1 <0>        -0.1561
     10 C9          5.2178   -2.0919    0.4986 C.2       1 <0>         0.0697
     11 C10         3.9587   -1.6589    0.8078 C.2       1 <0>        -0.0528
     12 C11         3.1718   -2.2838    1.9343 C.3       1 <0>         0.0562
     13 H1          2.5164   -1.5383    2.3845 H         1 <0>         0.0949
     14 C12         4.1714   -2.7939    2.9778 C.3       1 <0>        -0.0824
     15 C13         5.3478   -3.4671    2.3338 C.2       1 <0>         0.3028
     16 N2          5.8263   -3.1135    1.1758 N.2       1 <0>        -0.4697
     17 O1          5.9339   -4.4957    2.9827 O.3       1 <0>        -0.4774
     18 C14         2.3513   -3.4328    1.4075 C.2       1 <0>        -0.1299
     19 C15         0.9734   -3.4187    1.5163 C.2       1 <0>        -0.1451
     20 C16         0.2650   -4.4681    1.0322 C.2       1 <0>        -0.1832
     21 S1          1.5568   -5.5242    0.3973 S.3       1 <0>         0.0298
     22 C17         2.9531   -4.4931    0.8150 C.2       1 <0>        -0.1369
     23 C18         6.9737   -1.3399   -1.2970 C.2       1 <0>         0.5445
     24 O2          7.2242   -0.5773   -2.2214 O.co2     1 <0>        -0.7032
     25 O3          7.8052   -2.1653   -0.9420 O.co2     1 <0>        -0.6730
     26 H2         -0.9598    1.9047    0.0260 H         1 <0>         0.1246
     27 H3          1.1518    3.1689    0.0080 H         1 <0>         0.1288
     28 H4          3.3036    1.9746   -0.0200 H         1 <0>         0.1317
     29 H5          1.2206   -1.7596   -0.0193 H         1 <0>         0.1357
     30 H6         -0.9261   -0.5562    0.0082 H         1 <0>         0.1267
     31 H7          4.6355    0.3604   -1.6641 H         1 <0>         0.1731
     32 H8          4.5252   -1.9520    3.5729 H         1 <0>         0.0976
     33 H9          3.6694   -3.5054    3.6334 H         1 <0>         0.0995
     34 H10         6.6845   -4.8818    2.5109 H         1 <0>         0.4052
     35 H11         0.4687   -2.5842    1.9803 H         1 <0>         0.1331
     36 H12        -0.8036   -4.6248    1.0312 H         1 <0>         0.1841
     37 H13         4.0044   -4.6689    0.6415 H         1 <0>         0.1857
@<TRIPOS>BOND
     1    1    6 ar
     2    1    2 ar
     3    1   26 1
     4    2    3 ar
     5    2   27 1
     6    3    4 ar
     7    3   28 1
     8    4    5 ar
     9    4    7 1
    10    5    6 ar
    11    5   29 1
    12    6   30 1
    13    7   11 1
    14    7    8 1
    15    8    9 2
    16    8   31 1
    17    9   10 1
    18    9   23 1
    19   10   16 1
    20   10   11 2
    21   11   12 1
    22   12   13 1
    23   12   14 1
    24   12   18 1
    25   14   15 1
    26   14   32 1
    27   14   33 1
    28   15   16 2
    29   15   17 1
    30   17   34 1
    31   18   22 2
    32   18   19 1
    33   19   20 2
    34   19   35 1
    35   20   21 1
    36   20   36 1
    37   21   22 1
    38   22   37 1
    39   23   24 2
    40   23   25 1
@<TRIPOS>MOLECULE
ZINC19894312
   35    38     0     0     0
SMALL
USER_CHARGES
5-(3-aminothieno[5,4-b]pyridin-2-yl)-4-cyclopentyl-2H-1,2,4-triazole-3-thione
@<TRIPOS>ATOM
      1 C1         -0.4549    5.3670    0.0333 C.ar      1 <0>        -0.1886
      2 C2         -0.1867    4.0177    0.0252 C.ar      1 <0>        -0.0239
      3 C3         -1.2681    3.1031    0.0310 C.ar      1 <0>        -0.1558
      4 C4         -1.2324    1.6490    0.0169 C.2       1 <0>         0.2410
      5 C5         -2.4094    0.9654    0.0187 C.2       1 <0>        -0.1899
      6 S1         -3.6391    2.2552    0.0315 S.3       1 <0>         0.1095
      7 C6         -2.5645    3.6688    0.0340 C.ar      1 <0>         0.0952
      8 N1         -2.7694    4.9669    0.0420 N.ar      1 <0>        -0.4496
      9 C7         -1.7645    5.8219    0.0420 C.ar      1 <0>         0.1317
     10 C8         -2.6169   -0.4900    0.0114 C.2       1 <0>         0.2727
     11 N2         -1.6747   -1.3964   -0.0041 N.2       1 <0>        -0.3388
     12 N3         -2.2869   -2.6572   -0.0039 N.2       1 <0>        -0.3779
     13 C9         -3.6213   -2.4618    0.0043 C.2       1 <0>         0.3905
     14 S2         -4.8205   -3.6836    0.0028 S.3       1 <0>        -0.7624
     15 N4         -3.8414   -1.1321    0.0138 N.pl3     1 <0>        -0.5002
     16 C10        -5.1529   -0.4793    0.0239 C.3       1 <0>         0.1535
     17 C11        -5.9630   -0.9401    1.2532 C.3       1 <0>        -0.1381
     18 C12        -7.4190   -1.0399    0.7319 C.3       1 <0>        -0.1087
     19 C13        -7.2324   -1.5993   -0.7003 C.3       1 <0>        -0.1096
     20 C14        -5.9597   -0.8978   -1.2177 C.3       1 <0>        -0.1156
     21 N5         -0.0111    0.9658    0.0074 N.pl3     1 <0>        -0.8700
     22 H1          0.3597    6.0761    0.0334 H         1 <0>         0.1398
     23 H2          0.8328    3.6613    0.0189 H         1 <0>         0.1339
     24 H3         -1.9635    6.8834    0.0490 H         1 <0>         0.1668
     25 H4         -4.9379    0.5994    0.0397 H         1 <0>         0.0766
     26 H5         -5.5812   -1.9114    1.6009 H         1 <0>         0.1061
     27 H6         -5.8624   -0.1972    2.0581 H         1 <0>         0.0541
     28 H7         -7.9950   -1.7165    1.3803 H         1 <0>         0.0647
     29 H8         -7.8810   -0.0417    0.7410 H         1 <0>         0.0546
     30 H9         -7.1119   -2.6917   -0.6544 H         1 <0>         0.0997
     31 H10        -8.1155   -1.3530   -1.3081 H         1 <0>         0.0504
     32 H11        -6.2160   -0.0047   -1.8066 H         1 <0>         0.0586
     33 H12        -5.3572   -1.5822   -1.8330 H         1 <0>         0.0787
     34 H13         0.0038   -0.1340   -0.0032 H         1 <0>         0.4476
     35 H14         0.9340    1.5286    0.0106 H         1 <0>         0.4031
@<TRIPOS>BOND
     1    1    9 ar
     2    1    2 ar
     3    1   22 1
     4    2    3 ar
     5    2   23 1
     6    3    7 ar
     7    3    4 1
     8    4    5 2
     9    4   21 1
    10    5    6 1
    11    5   10 1
    12    6    7 1
    13    7    8 ar
    14    8    9 ar
    15    9   24 1
    16   10   15 1
    17   10   11 2
    18   11   12 1
    19   12   13 2
    20   13   14 1
    21   13   15 1
    22   15   16 1
    23   16   20 1
    24   16   17 1
    25   16   25 1
    26   17   18 1
    27   17   26 1
    28   17   27 1
    29   18   19 1
    30   18   28 1
    31   18   29 1
    32   19   20 1
    33   19   30 1
    34   19   31 1
    35   20   32 1
    36   20   33 1
    37   21   34 1
    38   21   35 1
@<TRIPOS>MOLECULE
ZINC40328006
   33    34     0     0     0
SMALL
USER_CHARGES

@<TRIPOS>ATOM
      1 C1         -0.0184    1.5028    0.0103 C.3       1 <0>        -0.1956
      2 C2          0.0021   -0.0041    0.0020 C.2       1 <0>         0.3969
      3 O1          1.0602   -0.5960   -0.0113 O.2       1 <0>        -0.4711
      4 C3         -1.2624   -0.7573    0.0100 C.ar      1 <0>        -0.1409
      5 C4         -2.4849   -0.0773    0.0195 C.ar      1 <0>        -0.1801
      6 C5         -3.6677   -0.7863    0.0265 C.ar      1 <0>        -0.0785
      7 C6         -3.6513   -2.1691    0.0243 C.ar      1 <0>        -0.2375
      8 C7         -2.4424   -2.8557    0.0149 C.ar      1 <0>         0.2656
      9 C8         -1.2468   -2.1545    0.0024 C.ar      1 <0>        -0.1139
     10 N1         -2.4328   -4.2528    0.0131 N.2       1 <0>        -1.0867
     11 S1         -3.8611   -5.0907    0.0222 S.o2      1 <0>         2.6025
     12 O2         -4.4813   -4.8226    1.2722 O.2       1 <0>        -1.0280
     13 O3         -4.4989   -4.8196   -1.2184 O.2       1 <0>        -1.0258
     14 C9         -3.4588   -6.8062    0.0172 C.ar      1 <0>        -0.5616
     15 C10        -3.3040   -7.4756   -1.1830 C.ar      1 <0>        -0.0703
     16 C11        -2.9888   -8.8219   -1.1918 C.ar      1 <0>        -0.0876
     17 C12        -2.8273   -9.5029   -0.0000 C.ar      1 <0>        -0.0791
     18 C13        -2.9817   -8.8325    1.2077 C.ar      1 <0>         0.2033
     19 C14        -3.2929   -7.4790    1.2119 C.ar      1 <0>        -0.0871
     20 N2         -2.8193   -9.5177    2.4148 N.pl3     1 <0>        -0.8741
     21 Cl1        -2.4326  -11.1934   -0.0115 Cl        1 <0>        -0.0780
     22 H1          1.0042    1.8801    0.0026 H         1 <0>         0.0752
     23 H2         -0.5455    1.8639   -0.8728 H         1 <0>         0.0901
     24 H3         -0.5286    1.8543    0.9071 H         1 <0>         0.0899
     25 H4         -2.5023    1.0026    0.0217 H         1 <0>         0.1123
     26 H5         -4.6106   -0.2596    0.0342 H         1 <0>         0.1090
     27 H6         -4.5814   -2.7180    0.0302 H         1 <0>         0.1008
     28 H7         -0.3067   -2.6860   -0.0091 H         1 <0>         0.1242
     29 H8         -3.4301   -6.9457   -2.1155 H         1 <0>         0.1438
     30 H9         -2.8690   -9.3418   -2.1308 H         1 <0>         0.1368
     31 H10        -3.4096   -6.9542    2.1486 H         1 <0>         0.1442
     32 H11        -2.5984  -10.4622    2.4105 H         1 <0>         0.3988
     33 H12        -2.9273   -9.0487    3.2570 H         1 <0>         0.4026
@<TRIPOS>BOND
     1    1    2 1
     2    1   22 1
     3    1   23 1
     4    1   24 1
     5    2    3 2
     6    2    4 1
     7    4    9 ar
     8    4    5 ar
     9    5    6 ar
    10    5   25 1
    11    6    7 ar
    12    6   26 1
    13    7    8 ar
    14    7   27 1
    15    8    9 ar
    16    8   10 1
    17    9   28 1
    18   10   11 1
    19   11   12 2
    20   11   13 2
    21   11   14 1
    22   14   19 ar
    23   14   15 ar
    24   15   16 ar
    25   15   29 1
    26   16   17 ar
    27   16   30 1
    28   17   18 ar
    29   17   21 1
    30   18   19 ar
    31   18   20 1
    32   19   31 1
    33   20   32 1
    34   20   33 1
@<TRIPOS>MOLECULE
ZINC42009419
   36    37     0     0     0
SMALL
USER_CHARGES

@<TRIPOS>ATOM
      1 C1         -1.9435   -1.9275    1.7270 C.3       1 <0>        -0.1368
      2 C2         -0.7866   -1.5967    0.8196 C.ar      1 <0>        -0.0558
      3 C3         -0.6017   -2.3074   -0.3518 C.ar      1 <0>        -0.1293
      4 C4          0.4593   -2.0041   -1.1840 C.ar      1 <0>        -0.1263
      5 C5          1.3354   -0.9895   -0.8453 C.ar      1 <0>        -0.1361
      6 C6          1.1500   -0.2784    0.3253 C.ar      1 <0>        -0.1086
      7 C7          0.0862   -0.5791    1.1556 C.ar      1 <0>        -0.0323
      8 C8         -0.1190    0.1998    2.4293 C.3       1 <0>        -0.0795
      9 C9          0.8960    1.3426    2.4975 C.3       1 <0>        -0.1388
     10 C10        -1.5154    0.7661    2.4524 C.2       1 <0>         0.5112
     11 O1         -2.3172    0.3776    3.2846 O.co2     1 <0>        -0.6570
     12 O2         -1.8433    1.6129    1.6388 O.co2     1 <0>        -0.6782
     13 S1          0.1113   -0.8993    3.8539 S.3       1 <0>        -0.1082
     14 C11        -0.2052    0.1343    5.2453 C.ar      1 <0>        -0.1042
     15 C12        -0.6179    1.4472    5.0559 C.ar      1 <0>        -0.0504
     16 C13        -0.8658    2.2570    6.1464 C.ar      1 <0>        -0.1837
     17 C14        -0.7021    1.7593    7.4325 C.ar      1 <0>         0.1953
     18 C15        -0.2896    0.4469    7.6221 C.ar      1 <0>        -0.1906
     19 C16        -0.0475   -0.3652    6.5320 C.ar      1 <0>        -0.0659
     20 N1         -0.9527    2.5809    8.5381 N.pl3     1 <0>        -0.8866
     21 H1         -2.7819   -1.2683    1.5018 H         1 <0>         0.0754
     22 H2         -2.2436   -2.9635    1.5701 H         1 <0>         0.0463
     23 H3         -1.6417   -1.7898    2.7653 H         1 <0>         0.1107
     24 H4         -1.2861   -3.0999   -0.6164 H         1 <0>         0.1164
     25 H5          0.6042   -2.5597   -2.0987 H         1 <0>         0.1142
     26 H6          2.1649   -0.7530   -1.4952 H         1 <0>         0.1154
     27 H7          1.8346    0.5138    0.5900 H         1 <0>         0.1234
     28 H8          0.7003    2.0509    1.6924 H         1 <0>         0.0709
     29 H9          0.8073    1.8505    3.4578 H         1 <0>         0.0626
     30 H10         1.9035    0.9405    2.3907 H         1 <0>         0.0565
     31 H11        -0.7445    1.8345    4.0557 H         1 <0>         0.1382
     32 H12        -1.1866    3.2777    5.9992 H         1 <0>         0.1140
     33 H13        -0.1621    0.0602    8.6224 H         1 <0>         0.1147
     34 H14         0.2690   -1.3871    6.6795 H         1 <0>         0.1182
     35 H15        -1.2405    3.4977    8.4057 H         1 <0>         0.3931
     36 H16        -0.8384    2.2333    9.4364 H         1 <0>         0.3917
@<TRIPOS>BOND
     1    1    2 1
     2    1   21 1
     3    1   22 1
     4    1   23 1
     5    2    7 ar
     6    2    3 ar
     7    3    4 ar
     8    3   24 1
     9    4    5 ar
    10    4   25 1
    11    5    6 ar
    12    5   26 1
    13    6    7 ar
    14    6   27 1
    15    7    8 1
    16    8    9 1
    17    8   10 1
    18    8   13 1
    19    9   28 1
    20    9   29 1
    21    9   30 1
    22   10   11 2
    23   10   12 1
    24   13   14 1
    25   14   19 ar
    26   14   15 ar
    27   15   16 ar
    28   15   31 1
    29   16   17 ar
    30   16   32 1
    31   17   18 ar
    32   17   20 1
    33   18   19 ar
    34   18   33 1
    35   19   34 1
    36   20   35 1
    37   20   36 1
@<TRIPOS>MOLECULE
ZINC43257686
   29    30     0     0     0
SMALL
USER_CHARGES

@<TRIPOS>ATOM
      1 C1          0.8131   -0.3726   -1.2410 C.3       1 <0>        -0.1388
      2 C2         -0.0349   -0.0697   -0.0041 C.3       1 <0>         0.1114
      3 H1         -1.0168   -0.5299   -0.1152 H         1 <0>         0.0903
      4 C3          0.6556   -0.6350    1.2387 C.3       1 <0>        -0.0189
      5 H2          1.6711   -0.2438    1.2997 H         1 <0>         0.1169
      6 C4          0.7011   -2.1386    1.1479 C.2       1 <0>        -0.1045
      7 C5          1.7783   -2.9607    1.1420 C.2       1 <0>        -0.1121
      8 C6          1.5797   -4.3259    1.0496 C.2       1 <0>        -0.1204
      9 C7          0.3118   -4.8013    0.9675 C.2       1 <0>        -0.1354
     10 S1         -0.6504   -3.2988    1.0280 S.3       1 <0>         0.0838
     11 Cl1        -0.2337   -6.4447    0.8429 Cl        1 <0>        -0.0009
     12 S2         -0.2706   -0.1465    2.7200 S.3       1 <0>        -0.0467
     13 C8          0.7606   -0.6560    4.0548 C.ar      1 <0>         0.3280
     14 N1          0.4014   -0.3647    5.2967 N.ar      1 <0>        -0.5889
     15 C9          1.1510   -0.7318    6.3250 C.ar      1 <0>         0.1496
     16 C10         2.3224   -1.4279    6.0931 C.ar      1 <0>        -0.3369
     17 C11         2.6738   -1.7197    4.7755 C.ar      1 <0>         0.4429
     18 N2          1.8737   -1.3261    3.7925 N.ar      1 <0>        -0.5986
     19 O1          3.8138   -2.3997    4.5030 O.3       1 <0>        -0.6991
     20 N3         -0.1890    1.3841    0.1400 N.3       1 <0>        -0.8360
     21 H3          0.9901   -1.4462   -1.3062 H         1 <0>         0.0648
     22 H4          0.2863   -0.0363   -2.1340 H         1 <0>         0.0680
     23 H5          1.7672    0.1489   -1.1639 H         1 <0>         0.0579
     24 H6          2.7772   -2.5555    1.2083 H         1 <0>         0.1423
     25 H7          2.4209   -5.0033    1.0425 H         1 <0>         0.1361
     26 H8          0.8505   -0.4897    7.3337 H         1 <0>         0.1399
     27 H9          2.9518   -1.7385    6.9140 H         1 <0>         0.1136
     28 H10        -0.7984    1.6084    0.9123 H         1 <0>         0.3488
     29 H11         0.7080    1.8342    0.2446 H         1 <0>         0.3429
@<TRIPOS>BOND
     1    1    2 1
     2    1   21 1
     3    1   22 1
     4    1   23 1
     5    2    3 1
     6    2    4 1
     7    2   20 1
     8    4    5 1
     9    4    6 1
    10    4   12 1
    11    6   10 1
    12    6    7 2
    13    7    8 1
    14    7   24 1
    15    8    9 2
    16    8   25 1
    17    9   10 1
    18    9   11 1
    19   12   13 1
    20   13   14 ar
    21   13   18 ar
    22   14   15 ar
    23   15   26 1
    24   15   16 ar
    25   16   27 1
    26   16   17 ar
    27   17   19 1
    28   17   18 ar
    29   20   28 1
    30   20   29 1
@<TRIPOS>MOLECULE
ZINC61857899
   36    37     0     0     0
SMALL
USER_CHARGES

@<TRIPOS>ATOM
      1 C1         -1.2725    1.1661    0.1737 C.3       1 <0>        -0.1012
      2 C2         -0.5849   -0.1712    0.0748 C.ar      1 <0>        -0.0951
      3 C3         -0.6561   -0.9100   -1.1080 C.ar      1 <0>        -0.0979
      4 C4         -0.0153   -2.1487   -1.1913 C.ar      1 <0>        -0.1131
      5 C5          0.6845   -2.6373   -0.1071 C.ar      1 <0>        -0.1173
      6 C6          0.7542   -1.9055    1.0636 C.ar      1 <0>        -0.1407
      7 C7          0.1251   -0.6694    1.1553 C.ar      1 <0>         0.1456
      8 N1          0.2045    0.0699    2.3414 N.am      1 <0>        -0.6760
      9 C8          0.4239   -0.5582    3.5135 C.2       1 <0>         0.7018
     10 O1          0.4511   -1.7730    3.5565 O.2       1 <0>        -0.5712
     11 N2          0.6133    0.1604    4.6379 N.am      1 <0>        -0.7476
     12 C9          0.8519   -0.5223    5.9120 C.3       1 <0>         0.1452
     13 C10         1.0333    0.5162    7.0208 C.3       1 <0>        -0.0754
     14 C11         1.2787   -0.1861    8.3314 C.2       1 <0>        -0.1185
     15 C12         0.2203   -0.5364    9.1485 C.2       1 <0>        -0.1513
     16 C13         0.4756   -1.1671   10.3208 C.2       1 <0>        -0.1712
     17 S1          2.2569   -1.2834   10.2973 S.3       1 <0>         0.0280
     18 C14         2.5403   -0.4886    8.7240 C.2       1 <0>        -0.1665
     19 C15        -1.4058   -0.3847   -2.2653 C.2       1 <0>         0.5270
     20 O2         -2.2918   -1.0556   -2.7755 O.co2     1 <0>        -0.6857
     21 O3         -1.1410    0.7216   -2.7142 O.co2     1 <0>        -0.6833
     22 H1         -0.5622    1.9583   -0.0629 H         1 <0>         0.0666
     23 H2         -2.1032    1.2005   -0.5313 H         1 <0>         0.0779
     24 H3         -1.6496    1.3068    1.1866 H         1 <0>         0.0457
     25 H4         -0.0680   -2.7238   -2.1039 H         1 <0>         0.1178
     26 H5          1.1793   -3.5950   -0.1733 H         1 <0>         0.1164
     27 H6          1.3030   -2.2939    1.9089 H         1 <0>         0.1381
     28 H7          0.1015    1.0341    2.3196 H         1 <0>         0.4039
     29 H8          0.5916    1.1295    4.6036 H         1 <0>         0.3962
     30 H9         -0.0000   -1.1602    6.1475 H         1 <0>         0.0679
     31 H10         1.7520   -1.1321    5.8344 H         1 <0>         0.0682
     32 H11         1.8852    1.1541    6.7853 H         1 <0>         0.0797
     33 H12         0.1332    1.1260    7.0983 H         1 <0>         0.0793
     34 H13        -0.7949   -0.3106    8.8573 H         1 <0>         0.1352
     35 H14        -0.2185   -1.5099   11.0739 H         1 <0>         0.1856
     36 H15         3.4746   -0.2975    8.2171 H         1 <0>         0.1861
@<TRIPOS>BOND
     1    1    2 1
     2    1   22 1
     3    1   23 1
     4    1   24 1
     5    2    7 ar
     6    2    3 ar
     7    3    4 ar
     8    3   19 1
     9    4    5 ar
    10    4   25 1
    11    5    6 ar
    12    5   26 1
    13    6    7 ar
    14    6   27 1
    15    7    8 1
    16    8    9 am
    17    8   28 1
    18    9   10 2
    19    9   11 am
    20   11   12 1
    21   11   29 1
    22   12   13 1
    23   12   30 1
    24   12   31 1
    25   13   14 1
    26   13   32 1
    27   13   33 1
    28   14   18 2
    29   14   15 1
    30   15   16 2
    31   15   34 1
    32   16   17 1
    33   16   35 1
    34   17   18 1
    35   18   36 1
    36   19   20 2
    37   19   21 1
@<TRIPOS>MOLECULE
ZINC05255280
   39    41     0     0     0
SMALL
USER_CHARGES
methyl 9-carbamoyl-8-[(5-chloro-2-thienyl)carbonylamino]-7-thia-4-azabicyclo[4.3.0]nona-8,10-diene-4-carboxylate
@<TRIPOS>ATOM
      1 C1          8.1013   -3.5225   -2.6624 C.3       1 <0>         0.0558
      2 O1          7.1392   -2.8985   -1.7717 O.3       1 <0>        -0.3698
      3 C2          7.5301   -1.7761   -1.1393 C.2       1 <0>         0.6558
      4 O2          8.6448   -1.3301   -1.3264 O.2       1 <0>        -0.5663
      5 N1          6.6851   -1.1471   -0.2986 N.am      1 <0>        -0.5940
      6 C3          7.0833    0.0809    0.4062 C.3       1 <0>         0.1297
      7 C4          6.2104    1.2466   -0.0621 C.3       1 <0>        -0.0794
      8 C5          4.7484    0.8188   -0.0400 C.2       1 <0>        -0.0504
      9 C6          4.3987   -0.4859   -0.0405 C.2       1 <0>        -0.2422
     10 S1          2.6293   -0.4839   -0.0180 S.3       1 <0>         0.2705
     11 C7          2.3523    1.2266   -0.0138 C.2       1 <0>         0.0744
     12 C8          3.6359    1.7546   -0.0232 C.2       1 <0>        -0.2247
     13 C9          3.8616    3.2030   -0.0161 C.2       1 <0>         0.5820
     14 O3          3.9654    3.7976    1.0409 O.2       1 <0>        -0.5291
     15 N2          3.9541    3.8764   -1.1799 N.am      1 <0>        -0.8467
     16 N3          1.1435    1.9028    0.0014 N.am      1 <0>        -0.6146
     17 C10        -0.0144    1.2131    0.0087 C.2       1 <0>         0.6067
     18 O4          0.0021   -0.0041    0.0020 O.2       1 <0>        -0.4799
     19 C11        -1.2921    1.9278    0.0187 C.2       1 <0>        -0.2488
     20 C12        -2.5806    1.4146    0.0220 C.2       1 <0>        -0.0419
     21 C13        -3.6131    2.3179    0.0326 C.2       1 <0>        -0.1630
     22 C14        -3.3303    3.6491    0.0392 C.2       1 <0>        -0.1188
     23 S2         -1.5970    3.6855    0.0376 S.3       1 <0>         0.2011
     24 Cl1        -4.4369    4.9866    0.0536 Cl        1 <0>         0.0359
     25 C15         5.3248   -1.6646   -0.0508 C.3       1 <0>         0.2034
     26 H1          7.6602   -4.4151   -3.1058 H         1 <0>         0.1049
     27 H2          8.3739   -2.8215   -3.4513 H         1 <0>         0.0641
     28 H3          8.9921   -3.7992   -2.0985 H         1 <0>         0.0649
     29 H4          6.9563   -0.0593    1.4797 H         1 <0>         0.0843
     30 H5          8.1287    0.3008    0.1900 H         1 <0>         0.1061
     31 H6          6.4922    1.5277   -1.0768 H         1 <0>         0.0853
     32 H7          6.3509    2.0975    0.6045 H         1 <0>         0.0940
     33 H8          3.8714    3.4025   -2.0223 H         1 <0>         0.4042
     34 H9          4.1035    4.8348   -1.1752 H         1 <0>         0.4051
     35 H10         1.1303    2.8727    0.0067 H         1 <0>         0.4193
     36 H11        -2.7633    0.3502    0.0161 H         1 <0>         0.1622
     37 H12        -4.6378    1.9768    0.0352 H         1 <0>         0.1560
     38 H13         5.2904   -2.1724    0.9130 H         1 <0>         0.0945
     39 H14         5.0394   -2.3541   -0.8453 H         1 <0>         0.1093
@<TRIPOS>BOND
     1    1    2 1
     2    1   26 1
     3    1   27 1
     4    1   28 1
     5    2    3 1
     6    3    4 2
     7    3    5 am
     8    5   25 1
     9    5    6 1
    10    6    7 1
    11    6   29 1
    12    6   30 1
    13    7    8 1
    14    7   31 1
    15    7   32 1
    16    8   12 1
    17    8    9 2
    18    9   10 1
    19    9   25 1
    20   10   11 1
    21   11   12 2
    22   11   16 1
    23   12   13 1
    24   13   14 2
    25   13   15 am
    26   15   33 1
    27   15   34 1
    28   16   17 am
    29   16   35 1
    30   17   18 2
    31   17   19 1
    32   19   23 1
    33   19   20 2
    34   20   21 1
    35   20   36 1
    36   21   22 2
    37   21   37 1
    38   22   23 1
    39   22   24 1
    40   25   38 1
    41   25   39 1
@<TRIPOS>MOLECULE
ZINC43861514
   54    56     0     0     0
SMALL
USER_CHARGES

@<TRIPOS>ATOM
      1 C1         -0.0187    1.5258    0.0104 C.3       1 <0>        -0.1603
      2 C2          0.0021   -0.0041    0.0020 C.3       1 <0>         0.2025
      3 H1          0.5123   -0.3556   -0.8948 H         1 <0>         0.1005
      4 C3         -1.4117   -0.5257    0.0127 C.ar      1 <0>        -0.0960
      5 C4         -2.1251   -0.5720    1.1962 C.ar      1 <0>        -0.1189
      6 C5         -3.4176   -1.0535    1.1984 C.ar      1 <0>        -0.1144
      7 C6         -4.0098   -1.4914    0.0205 C.ar      1 <0>        -0.0721
      8 C7         -3.3014   -1.4405   -1.1587 C.ar      1 <0>        -0.0679
      9 C8         -2.0005   -0.9533   -1.1591 C.ar      1 <0>        -0.1050
     10 C9         -3.8851   -1.8830   -2.4749 C.3       1 <0>        -0.0841
     11 C10        -5.1134   -2.7622   -2.2494 C.3       1 <0>        -0.1211
     12 C11        -6.0613   -2.0329   -1.2900 C.3       1 <0>        -0.1215
     13 C12        -5.4212   -2.0123    0.0966 C.3       1 <0>        -0.0832
     14 N1          0.7106   -0.4894    1.1889 N.am      1 <0>        -0.7370
     15 C13         2.0538   -0.5998    1.1737 C.2       1 <0>         0.7147
     16 O1          2.6774   -0.2967    0.1749 O.2       1 <0>        -0.5649
     17 N2          2.7056   -1.0463    2.2656 N.am      1 <0>        -0.5328
     18 N3          1.9870   -1.3956    3.4164 N.am      1 <0>        -0.5306
     19 C14         2.6389   -1.8420    4.5083 C.2       1 <0>         0.5144
     20 O2          3.8475   -1.9414    4.4946 O.2       1 <0>        -0.5244
     21 C15         1.8659   -2.2178    5.7462 C.3       1 <0>        -0.1243
     22 C16         2.8371   -2.6891    6.8304 C.3       1 <0>        -0.0757
     23 H2          3.4602   -3.4909    6.4343 H         1 <0>         0.1072
     24 C17         3.7303   -1.5140    7.2615 C.3       1 <0>        -0.1349
     25 C18         4.4785   -1.9258    8.5615 C.3       1 <0>        -0.5705
     26 S1          3.1312   -2.8019    9.4627 S.o2      1 <0>         2.3687
     27 O3          2.4630   -1.8762   10.3089 O.2       1 <0>        -0.9357
     28 O4          3.6497   -4.0047   10.0137 O.2       1 <0>        -0.9376
     29 C19         2.0352   -3.2142    8.0456 C.3       1 <0>        -0.5830
     30 H3          1.0039    1.9031    0.0027 H         1 <0>         0.0674
     31 H4         -0.5459    1.8868   -0.8726 H         1 <0>         0.0711
     32 H5         -0.5289    1.8773    0.9072 H         1 <0>         0.0590
     33 H6         -1.6717   -0.2326    2.1158 H         1 <0>         0.1168
     34 H7         -3.9737   -1.0908    2.1235 H         1 <0>         0.1233
     35 H8         -1.4438   -0.9135   -2.0837 H         1 <0>         0.1248
     36 H9         -4.1728   -1.0052   -3.0536 H         1 <0>         0.0782
     37 H10        -3.1354   -2.4480   -3.0287 H         1 <0>         0.0760
     38 H11        -5.6176   -2.9391   -3.1995 H         1 <0>         0.0695
     39 H12        -4.8089   -3.7131   -1.8123 H         1 <0>         0.0657
     40 H13        -6.2199   -1.0117   -1.6363 H         1 <0>         0.0662
     41 H14        -7.0152   -2.5586   -1.2462 H         1 <0>         0.0692
     42 H15        -5.4096   -3.0239    0.5022 H         1 <0>         0.0768
     43 H16        -6.0069   -1.3690    0.7533 H         1 <0>         0.0753
     44 H17         0.2131   -0.7312    1.9857 H         1 <0>         0.3898
     45 H18         3.6723   -1.1257    2.2546 H         1 <0>         0.4447
     46 H19         1.0204   -1.3161    3.4273 H         1 <0>         0.4193
     47 H20         1.3125   -1.3505    6.1062 H         1 <0>         0.1098
     48 H21         1.1684   -3.0211    5.5091 H         1 <0>         0.1123
     49 H22         4.4524   -1.2927    6.4756 H         1 <0>         0.1175
     50 H23         3.1150   -0.6350    7.4536 H         1 <0>         0.0859
     51 H24         5.3082   -2.5979    8.3427 H         1 <0>         0.1402
     52 H25         4.8184   -1.0503    9.1149 H         1 <0>         0.1416
     53 H26         1.0802   -2.6957    8.1317 H         1 <0>         0.1426
     54 H27         1.8862   -4.2916    7.9740 H         1 <0>         0.1449
@<TRIPOS>BOND
     1    1    2 1
     2    1   30 1
     3    1   31 1
     4    1   32 1
     5    2    3 1
     6    2    4 1
     7    2   14 1
     8    4    9 ar
     9    4    5 ar
    10    5    6 ar
    11    5   33 1
    12    6    7 ar
    13    6   34 1
    14    7   13 1
    15    7    8 ar
    16    8    9 ar
    17    8   10 1
    18    9   35 1
    19   10   11 1
    20   10   36 1
    21   10   37 1
    22   11   12 1
    23   11   38 1
    24   11   39 1
    25   12   13 1
    26   12   40 1
    27   12   41 1
    28   13   42 1
    29   13   43 1
    30   14   15 am
    31   14   44 1
    32   15   16 2
    33   15   17 am
    34   17   18 1
    35   17   45 1
    36   18   19 am
    37   18   46 1
    38   19   20 2
    39   19   21 1
    40   21   22 1
    41   21   47 1
    42   21   48 1
    43   22   23 1
    44   22   29 1
    45   22   24 1
    46   24   25 1
    47   24   49 1
    48   24   50 1
    49   25   26 1
    50   25   51 1
    51   25   52 1
    52   26   27 2
    53   26   28 2
    54   26   29 1
    55   29   53 1
    56   29   54 1
@<TRIPOS>MOLECULE
ZINC55183063
   46    49     0     0     0
SMALL
USER_CHARGES

@<TRIPOS>ATOM
      1 C1          0.6490    0.4956   -2.1809 C.3       1 <0>         0.0847
      2 N1          0.6176   -0.9001   -1.7368 N.am      1 <0>        -0.7294
      3 C2          1.3712   -1.8242   -2.3649 C.2       1 <0>         0.5823
      4 O1          2.0778   -1.4993   -3.3011 O.2       1 <0>        -0.5328
      5 C3          1.3398   -3.2210   -1.9204 C.2       1 <0>        -0.2443
      6 C4          0.3940   -4.1716   -2.4785 C.2       1 <0>        -0.0603
      7 C5          0.4928   -5.4163   -1.9637 C.2       1 <0>        -0.2332
      8 S1          1.8032   -5.3099   -0.7804 S.3       1 <0>         0.2981
      9 C6          2.2154   -3.6913   -0.9539 C.2       1 <0>         0.0513
     10 N2          3.2019   -2.9870   -0.2832 N.am      1 <0>        -0.6164
     11 C7          3.9685   -3.6090    0.6343 C.2       1 <0>         0.5595
     12 O2          3.7943   -4.7883    0.8733 O.2       1 <0>        -0.4468
     13 C8          5.0196   -2.8586    1.3489 C.ar      1 <0>        -0.0841
     14 C9          5.9596   -2.1150    0.6355 C.ar      1 <0>        -0.0865
     15 C10         6.9398   -1.4150    1.3085 C.ar      1 <0>        -0.0986
     16 C11         6.9988   -1.4448    2.6921 C.ar      1 <0>        -0.0899
     17 C12         6.0779   -2.1751    3.4158 C.ar      1 <0>        -0.1007
     18 C13         5.0765   -2.8839    2.7553 C.ar      1 <0>         0.0157
     19 C14         4.0839   -3.6621    3.5260 C.2       1 <0>         0.3080
     20 N3          4.0977   -3.8702    4.8630 N.pl3     1 <0>        -0.4723
     21 H1          4.7541   -3.5409    5.4967 H         1 <0>         0.4404
     22 N4          2.9707   -4.6577    5.1494 N.2       1 <0>        -0.3057
     23 C15         2.3583   -4.8759    4.0136 C.2       1 <0>         0.2093
     24 N5          3.0243   -4.2727    3.0344 N.2       1 <0>        -0.4979
     25 C16        -0.3360   -6.6090   -2.3284 C.3       1 <0>        -0.0333
     26 C17        -1.5683   -6.1208   -3.1042 C.3       1 <0>        -0.1141
     27 C18        -1.1141   -5.1423   -4.1911 C.3       1 <0>        -0.1188
     28 C19        -0.6336   -3.8383   -3.5501 C.3       1 <0>        -0.0593
     29 H2          1.6648    0.8815   -2.0950 H         1 <0>         0.0596
     30 H3          0.3249    0.5536   -3.2200 H         1 <0>         0.0613
     31 H4         -0.0194    1.0902   -1.5582 H         1 <0>         0.0764
     32 H5          0.0545   -1.1591   -0.9906 H         1 <0>         0.4035
     33 H6          3.3409   -2.0461   -0.4739 H         1 <0>         0.4156
     34 H7          5.9204   -2.0875   -0.4434 H         1 <0>         0.1398
     35 H8          7.6660   -0.8403    0.7528 H         1 <0>         0.1407
     36 H9          7.7707   -0.8931    3.2081 H         1 <0>         0.1405
     37 H10         6.1310   -2.1939    4.4944 H         1 <0>         0.1326
     38 H11         1.4527   -5.4516    3.8919 H         1 <0>         0.2208
     39 H12         0.2477   -7.2848   -2.9535 H         1 <0>         0.0804
     40 H13        -0.6531   -7.1267   -1.4232 H         1 <0>         0.0797
     41 H14        -2.0699   -6.9715   -3.5654 H         1 <0>         0.0724
     42 H15        -2.2530   -5.6168   -2.4222 H         1 <0>         0.0672
     43 H16        -0.2988   -5.5874   -4.7613 H         1 <0>         0.0668
     44 H17        -1.9487   -4.9309   -4.8597 H         1 <0>         0.0686
     45 H18        -1.4789   -3.3200   -3.0975 H         1 <0>         0.0750
     46 H19        -0.1770   -3.2041   -4.3099 H         1 <0>         0.0736
@<TRIPOS>BOND
     1    1    2 1
     2    1   29 1
     3    1   30 1
     4    1   31 1
     5    2    3 am
     6    2   32 1
     7    3    4 2
     8    3    5 1
     9    5    9 2
    10    5    6 1
    11    6   28 1
    12    6    7 2
    13    7    8 1
    14    7   25 1
    15    8    9 1
    16    9   10 1
    17   10   11 am
    18   10   33 1
    19   11   12 2
    20   11   13 1
    21   13   18 ar
    22   13   14 ar
    23   14   15 ar
    24   14   34 1
    25   15   16 ar
    26   15   35 1
    27   16   17 ar
    28   16   36 1
    29   17   18 ar
    30   17   37 1
    31   18   19 1
    32   19   24 2
    33   19   20 1
    34   20   21 1
    35   20   22 1
    36   22   23 2
    37   23   24 1
    38   23   38 1
    39   25   26 1
    40   25   39 1
    41   25   40 1
    42   26   27 1
    43   26   41 1
    44   26   42 1
    45   27   28 1
    46   27   43 1
    47   27   44 1
    48   28   45 1
    49   28   46 1
@<TRIPOS>MOLECULE
ZINC40285111
   45    48     0     0     0
SMALL
USER_CHARGES

@<TRIPOS>ATOM
      1 C1         -0.0167    1.3770    0.0096 C.ar      1 <0>        -0.1029
      2 C2          1.1704    2.0865    0.0021 C.ar      1 <0>        -0.0940
      3 C3          2.3796    1.4165   -0.0135 C.ar      1 <0>        -0.1018
      4 C4          2.4052    0.0344   -0.0212 C.ar      1 <0>        -0.0192
      5 C5          1.2141   -0.6806   -0.0132 C.ar      1 <0>         0.1248
      6 C6          0.0021   -0.0041    0.0020 C.ar      1 <0>        -0.0938
      7 N1          1.2362   -2.0826   -0.0210 N.pl3     1 <0>        -0.3961
      8 C7          0.7812   -2.8992   -1.0171 C.2       1 <0>         0.1899
      9 N2          0.9729   -4.1465   -0.6652 N.2       1 <0>        -0.4488
     10 C8          1.5415   -4.1849    0.5327 C.2       1 <0>        -0.0295
     11 C9          1.7215   -2.8943    0.9623 C.2       1 <0>         0.2047
     12 N3          2.2846   -2.6085    2.1711 N.2       1 <0>        -0.5402
     13 C10         2.9513   -3.5373    2.7905 C.2       1 <0>         0.3853
     14 C11         3.1690   -4.9104    2.2259 C.3       1 <0>        -0.1011
     15 C12         1.9720   -5.3610    1.3734 C.3       1 <0>         0.0458
     16 H1          2.2776   -6.1842    0.7277 H         1 <0>         0.1170
     17 C13         0.8337   -5.8001    2.2580 C.ar      1 <0>        -0.0370
     18 C14         0.2891   -4.9172    3.1724 C.ar      1 <0>        -0.1468
     19 C15        -0.7552   -5.3170    3.9853 C.ar      1 <0>        -0.0762
     20 C16        -1.2571   -6.6004    3.8861 C.ar      1 <0>        -0.2088
     21 C17        -0.7126   -7.4879    2.9697 C.ar      1 <0>         0.1296
     22 C18         0.3315   -7.0823    2.1507 C.ar      1 <0>        -0.1297
     23 O1         -1.2045   -8.7509    2.8702 O.3       1 <0>        -0.2886
     24 C19        -2.2836   -9.0972    3.7407 C.3       1 <0>         0.0396
     25 C20        -2.6935  -10.5254    3.4890 C.2       1 <0>         0.5190
     26 O2         -2.1182  -11.1820    2.6471 O.2       1 <0>        -0.5156
     27 N4         -3.6993  -11.0730    4.1995 N.am      1 <0>        -0.8505
     28 O3          3.4740   -3.2519    4.0017 O.3       1 <0>        -0.4559
     29 Cl1         3.9237   -0.8067   -0.0414 Cl        1 <0>        -0.0463
     30 H2         -0.9595    1.9034    0.0260 H         1 <0>         0.1409
     31 H3          1.1527    3.1664    0.0081 H         1 <0>         0.1412
     32 H4          3.3049    1.9734   -0.0201 H         1 <0>         0.1431
     33 H5         -0.9255   -0.5572    0.0083 H         1 <0>         0.1396
     34 H6          0.3358   -2.5699   -1.9442 H         1 <0>         0.2150
     35 H7          4.0689   -4.9041    1.6108 H         1 <0>         0.1125
     36 H8          3.3046   -5.6154    3.0460 H         1 <0>         0.1136
     37 H9          0.6805   -3.9138    3.2519 H         1 <0>         0.1206
     38 H10        -1.1789   -4.6256    4.6987 H         1 <0>         0.1247
     39 H11        -2.0725   -6.9125    4.5219 H         1 <0>         0.1273
     40 H12         0.7540   -7.7700    1.4331 H         1 <0>         0.1367
     41 H13        -1.9637   -8.9883    4.7770 H         1 <0>         0.0951
     42 H14        -3.1300   -8.4374    3.5505 H         1 <0>         0.0945
     43 H15        -4.1594  -10.5478    4.8729 H         1 <0>         0.4034
     44 H16        -3.9632  -11.9923    4.0375 H         1 <0>         0.4102
     45 H17         3.2963   -2.3508    4.3044 H         1 <0>         0.4086
@<TRIPOS>BOND
     1    1    6 ar
     2    1    2 ar
     3    1   30 1
     4    2    3 ar
     5    2   31 1
     6    3    4 ar
     7    3   32 1
     8    4    5 ar
     9    4   29 1
    10    5    6 ar
    11    5    7 1
    12    6   33 1
    13    7   11 1
    14    7    8 1
    15    8    9 2
    16    8   34 1
    17    9   10 1
    18   10   15 1
    19   10   11 2
    20   11   12 1
    21   12   13 2
    22   13   14 1
    23   13   28 1
    24   14   15 1
    25   14   35 1
    26   14   36 1
    27   15   16 1
    28   15   17 1
    29   17   22 ar
    30   17   18 ar
    31   18   19 ar
    32   18   37 1
    33   19   20 ar
    34   19   38 1
    35   20   21 ar
    36   20   39 1
    37   21   22 ar
    38   21   23 1
    39   22   40 1
    40   23   24 1
    41   24   25 1
    42   24   41 1
    43   24   42 1
    44   25   26 2
    45   25   27 am
    46   27   43 1
    47   27   44 1
    48   28   45 1
@<TRIPOS>MOLECULE
ZINC66964422
   45    47     0     0     0
SMALL
USER_CHARGES

@<TRIPOS>ATOM
      1 C1          0.2207    1.0299   -1.9160 C.3       1 <0>         0.0863
      2 N1          0.1597   -0.2889   -1.2809 N.am      1 <0>        -0.7308
      3 C2         -0.9988   -0.9776   -1.2679 C.2       1 <0>         0.5572
      4 O1         -1.9930   -0.5045   -1.7830 O.2       1 <0>        -0.5234
      5 C3         -1.0604   -2.3081   -0.6272 C.ar      1 <0>        -0.1124
      6 C4          0.0790   -2.8511   -0.0298 C.ar      1 <0>        -0.0919
      7 C5          0.0194   -4.0932    0.5671 C.ar      1 <0>        -0.0960
      8 C6         -1.1674   -4.8048    0.5768 C.ar      1 <0>        -0.0438
      9 C7         -2.3075   -4.2720   -0.0153 C.ar      1 <0>         0.1709
     10 C8         -2.2585   -3.0228   -0.6125 C.ar      1 <0>        -0.0501
     11 N2         -3.5062   -4.9959   -0.0034 N.am      1 <0>        -0.6831
     12 C9         -4.6832   -4.3488    0.1079 C.2       1 <0>         0.7053
     13 O2         -4.7103   -3.1332    0.1157 O.2       1 <0>        -0.5618
     14 N3         -5.8302   -5.0490    0.2106 N.am      1 <0>        -0.7353
     15 C10        -7.1095   -4.3456    0.3316 C.3       1 <0>         0.1799
     16 C11        -8.2280   -5.3507    0.4304 C.ar      1 <0>        -0.1194
     17 C12        -8.8463   -5.8101   -0.7180 C.ar      1 <0>        -0.0676
     18 C13        -9.8718   -6.7313   -0.6306 C.ar      1 <0>        -0.1359
     19 C14       -10.2812   -7.1963    0.6117 C.ar      1 <0>         0.1468
     20 C15        -9.6583   -6.7337    1.7628 C.ar      1 <0>        -0.1348
     21 C16        -8.6302   -5.8161    1.6688 C.ar      1 <0>        -0.0684
     22 N4        -11.3223   -8.1313    0.7036 N.pl3     1 <0>        -0.4150
     23 C17       -11.8330   -8.6718    1.8554 C.2       1 <0>        -0.0545
     24 C18       -12.8133   -9.5185    1.4877 C.2       1 <0>        -0.0186
     25 N5        -12.9031   -9.4995    0.1496 N.2       1 <0>        -0.4825
     26 C19       -12.0193   -8.6680   -0.3314 C.2       1 <0>         0.1904
     27 Cl1        -1.2332   -6.3676    1.3298 Cl        1 <0>        -0.0555
     28 H1          1.2311    1.4292   -1.8278 H         1 <0>         0.0785
     29 H2         -0.0431    0.9384   -2.9696 H         1 <0>         0.0628
     30 H3         -0.4805    1.7033   -1.4230 H         1 <0>         0.0630
     31 H4          0.9530   -0.6664   -0.8699 H         1 <0>         0.4017
     32 H5          1.0070   -2.2987   -0.0355 H         1 <0>         0.1378
     33 H6          0.9019   -4.5118    1.0280 H         1 <0>         0.1465
     34 H7         -3.1439   -2.6054   -1.0689 H         1 <0>         0.1664
     35 H8         -3.4894   -5.9631   -0.0753 H         1 <0>         0.4111
     36 H9         -5.8086   -6.0188    0.2044 H         1 <0>         0.4003
     37 H10        -7.0993   -3.7243    1.2271 H         1 <0>         0.0821
     38 H11        -7.2627   -3.7166   -0.5453 H         1 <0>         0.0831
     39 H12        -8.5274   -5.4479   -1.6842 H         1 <0>         0.1381
     40 H13       -10.3548   -7.0892   -1.5278 H         1 <0>         0.1358
     41 H14        -9.9750   -7.0935    2.7306 H         1 <0>         0.1344
     42 H15        -8.1424   -5.4589    2.5638 H         1 <0>         0.1368
     43 H16       -11.5106   -8.4595    2.8641 H         1 <0>         0.1791
     44 H17       -13.4219  -10.1109    2.1549 H         1 <0>         0.1768
     45 H18       -11.8661   -8.4461   -1.3771 H         1 <0>         0.2098
@<TRIPOS>BOND
     1    1    2 1
     2    1   28 1
     3    1   29 1
     4    1   30 1
     5    2    3 am
     6    2   31 1
     7    3    4 2
     8    3    5 1
     9    5   10 ar
    10    5    6 ar
    11    6    7 ar
    12    6   32 1
    13    7    8 ar
    14    7   33 1
    15    8    9 ar
    16    8   27 1
    17    9   10 ar
    18    9   11 1
    19   10   34 1
    20   11   12 am
    21   11   35 1
    22   12   13 2
    23   12   14 am
    24   14   15 1
    25   14   36 1
    26   15   16 1
    27   15   37 1
    28   15   38 1
    29   16   21 ar
    30   16   17 ar
    31   17   18 ar
    32   17   39 1
    33   18   19 ar
    34   18   40 1
    35   19   20 ar
    36   19   22 1
    37   20   21 ar
    38   20   41 1
    39   21   42 1
    40   22   26 1
    41   22   23 1
    42   23   24 2
    43   23   43 1
    44   24   25 1
    45   24   44 1
    46   25   26 2
    47   26   45 1
@<TRIPOS>MOLECULE
ZINC05412148
   48    51     0     0     0
SMALL
USER_CHARGES
[5-(6-benzylaminopurin-9-yl)-3,4-dihydroxy-tetrahydrofuran-2-yl]methoxyphosphonic acid
@<TRIPOS>ATOM
      1 C1          3.0542   13.0511    5.3555 C.ar      1 <0>        -0.1177
      2 C2          1.8123   13.0400    4.7485 C.ar      1 <0>        -0.1213
      3 C3          0.9461   11.9848    4.9659 C.ar      1 <0>        -0.1089
      4 C4          1.3217   10.9410    5.7907 C.ar      1 <0>        -0.0876
      5 C5          2.5613   10.9549    6.4022 C.ar      1 <0>        -0.0927
      6 C6          3.4297   12.0073    6.1803 C.ar      1 <0>        -0.1227
      7 C7          0.3772    9.7909    6.0280 C.3       1 <0>         0.1175
      8 N1          0.6077    8.7536    5.0195 N.pl3     1 <0>        -0.5964
      9 C8         -0.1468    7.5936    5.0351 C.ar      1 <0>         0.4251
     10 C9          0.0607    6.5879    4.0754 C.ar      1 <0>        -0.0540
     11 C10        -0.7395    5.4349    4.1393 C.ar      1 <0>         0.2895
     12 N2         -1.6576    5.3379    5.0957 N.ar      1 <0>        -0.5327
     13 C11        -1.8198    6.3076    5.9707 C.ar      1 <0>         0.3265
     14 N3         -1.0939    7.4108    5.9491 N.ar      1 <0>        -0.5764
     15 N4         -0.3293    4.6321    3.1052 N.pl3     1 <0>        -0.4475
     16 C12         0.6692    5.2886    2.4495 C.2       1 <0>         0.3185
     17 N5          0.8965    6.4359    3.0203 N.2       1 <0>        -0.4740
     18 C13        -0.8696    3.3137    2.7643 C.3       1 <0>         0.3022
     19 H1         -1.9369    3.2723    2.9818 H         1 <0>         0.1181
     20 C14        -0.1195    2.2081    3.5399 C.3       1 <0>         0.0349
     21 H2         -0.6869    1.9073    4.4205 H         1 <0>         0.0838
     22 C15        -0.0248    1.0408    2.5320 C.3       1 <0>         0.0458
     23 H3         -0.5453    0.1629    2.9145 H         1 <0>         0.0854
     24 C16        -0.7288    1.5792    1.2668 C.3       1 <0>         0.0868
     25 H4         -1.7745    1.2720    1.2527 H         1 <0>         0.0967
     26 O1         -0.6284    3.0162    1.3718 O.3       1 <0>        -0.3341
     27 C17        -0.0127    1.0858    0.0080 C.3       1 <0>         0.1485
     28 O2         -0.7038    1.5592   -1.1497 O.3       1 <0>        -0.7574
     29 P1         -0.2267    1.2297   -2.6516 P.3       1 <0>         2.1347
     30 O3          1.1822    1.6483   -2.8247 O.2       1 <0>        -1.1636
     31 O4          1.3418    0.7314    2.2512 O.3       1 <0>        -0.5202
     32 O5          1.1845    2.6564    3.9151 O.3       1 <0>        -0.5317
     33 H5          3.7312   13.8751    5.1851 H         1 <0>         0.1201
     34 H6          1.5189   13.8555    4.1041 H         1 <0>         0.1218
     35 H7         -0.0241   11.9762    4.4917 H         1 <0>         0.1213
     36 H8          2.8530   10.1415    7.0501 H         1 <0>         0.1234
     37 H9          4.4001   12.0158    6.6542 H         1 <0>         0.1215
     38 H10        -0.6513   10.1447    5.9568 H         1 <0>         0.0599
     39 H11         0.5511    9.3770    7.0213 H         1 <0>         0.0914
     40 H12         0.4482    9.1333    4.1083 H         1 <0>         0.3663
     41 H13        -2.5750    6.1972    6.7349 H         1 <0>         0.1993
     42 H14         1.1945    4.9121    1.5842 H         1 <0>         0.2287
     43 H15         0.0021   -0.0041    0.0020 H         1 <0>         0.0536
     44 H16         1.0099    1.4631    0.0003 H         1 <0>         0.0565
     45 H17         1.8318    0.3891    3.0114 H         1 <0>         0.3667
     46 H18         1.6998    2.0011    4.4051 H         1 <0>         0.3763
     47 O6         -0.3532   -0.3528   -2.9199 O.3       1 <0>        -1.2019
     48 O7         -1.1558    2.0271   -3.6970 O.3       1 <0>        -1.1801
@<TRIPOS>BOND
     1    1    6 ar
     2    1    2 ar
     3    1   33 1
     4    2    3 ar
     5    2   34 1
     6    3    4 ar
     7    3   35 1
     8    4    5 ar
     9    4    7 1
    10    5    6 ar
    11    5   36 1
    12    6   37 1
    13    7    8 1
    14    7   38 1
    15    7   39 1
    16    8    9 1
    17    8   40 1
    18    9   14 ar
    19    9   10 ar
    20   10   17 1
    21   10   11 ar
    22   11   12 ar
    23   11   15 1
    24   12   13 ar
    25   13   14 ar
    26   13   41 1
    27   15   16 1
    28   15   18 1
    29   16   17 2
    30   16   42 1
    31   18   19 1
    32   18   26 1
    33   18   20 1
    34   20   21 1
    35   20   22 1
    36   20   32 1
    37   22   23 1
    38   22   24 1
    39   22   31 1
    40   24   25 1
    41   24   26 1
    42   24   27 1
    43   27   28 1
    44   27   43 1
    45   27   44 1
    46   28   29 1
    47   29   30 2
    48   29   47 1
    49   29   48 1
    50   31   45 1
    51   32   46 1
@<TRIPOS>MOLECULE
ZINC13275110
   39    40     0     0     0
SMALL
USER_CHARGES
(2S)-2-[[3-nitro-4-(3-nitrophenoxy)benzoyl]amino]propanoic acid
@<TRIPOS>ATOM
      1 C1         -3.0563    4.4055    1.3438 C.3       1 <0>        -0.1392
      2 C2         -2.6481    4.1148   -0.1018 C.3       1 <0>         0.0929
      3 H1         -3.4079    3.4937   -0.5760 H         1 <0>         0.0947
      4 C3         -2.5164    5.4121   -0.8572 C.2       1 <0>         0.4643
      5 O1         -1.4584    5.7168   -1.3548 O.co2     1 <0>        -0.6363
      6 N1         -1.3638    3.4100   -0.1142 N.am      1 <0>        -0.6849
      7 C4         -1.3289    2.0703    0.0289 C.2       1 <0>         0.5477
      8 O2         -2.3633    1.4467    0.1682 O.2       1 <0>        -0.5340
      9 C5         -0.0350    1.3602    0.0164 C.ar      1 <0>        -0.1100
     10 C6          1.1547    2.0747   -0.1494 C.ar      1 <0>        -0.0221
     11 C7          2.3592    1.4081   -0.1662 C.ar      1 <0>        -0.1248
     12 C8          2.3931    0.0260   -0.0184 C.ar      1 <0>         0.1555
     13 C9          1.2121   -0.6881    0.1467 C.ar      1 <0>        -0.0643
     14 C10         0.0033   -0.0286    0.1645 C.ar      1 <0>         0.0105
     15 N2          1.2537   -2.1594    0.3030 N.pl3     1 <0>         0.0296
     16 O3          0.2192   -2.7860    0.4474 O.2       1 <0>        -0.1479
     17 O4          2.3224   -2.7436    0.2874 O.3       1 <0>        -0.1440
     18 O5          3.5823   -0.6274   -0.0351 O.3       1 <0>        -0.2337
     19 C11         4.0258   -1.1149   -1.2234 C.ar      1 <0>         0.1399
     20 C12         3.3257   -0.8441   -2.3906 C.ar      1 <0>        -0.1525
     21 C13         3.7812   -1.3369   -3.5978 C.ar      1 <0>        -0.0727
     22 C14         4.9281   -2.1084   -3.6426 C.ar      1 <0>        -0.0840
     23 C15         5.6245   -2.3840   -2.4805 C.ar      1 <0>        -0.0058
     24 C16         5.1760   -1.8891   -1.2711 C.ar      1 <0>        -0.0694
     25 N3          6.8513   -3.2105   -2.5321 N.pl3     1 <0>         0.0280
     26 O6          7.4651   -3.4540   -1.5086 O.2       1 <0>        -0.1492
     27 O7          7.2472   -3.6471   -3.5981 O.3       1 <0>        -0.1530
     28 H2         -2.2965    5.0266    1.8181 H         1 <0>         0.0500
     29 H3         -4.0119    4.9299    1.3530 H         1 <0>         0.0759
     30 H4         -3.1516    3.4671    1.8902 H         1 <0>         0.0498
     31 H5         -0.5386    3.9076   -0.2253 H         1 <0>         0.4044
     32 H6          1.1291    3.1482   -0.2646 H         1 <0>         0.1641
     33 H7          3.2790    1.9595   -0.2943 H         1 <0>         0.1666
     34 H8         -0.9140   -0.5842    0.2925 H         1 <0>         0.1770
     35 H9          2.4275   -0.2454   -2.3556 H         1 <0>         0.1423
     36 H10         3.2390   -1.1230   -4.5070 H         1 <0>         0.1555
     37 H11         5.2801   -2.4965   -4.5869 H         1 <0>         0.1591
     38 H12         5.7206   -2.1045   -0.3636 H         1 <0>         0.1676
     39 O8         -3.5745    6.2293   -0.9771 O.co2     1 <0>        -0.7478
@<TRIPOS>BOND
     1    1    2 1
     2    1   28 1
     3    1   29 1
     4    1   30 1
     5    2    3 1
     6    2    4 1
     7    2    6 1
     8    4    5 2
     9    4   39 1
    10    6    7 am
    11    6   31 1
    12    7    8 2
    13    7    9 1
    14    9   14 ar
    15    9   10 ar
    16   10   11 ar
    17   10   32 1
    18   11   12 ar
    19   11   33 1
    20   12   13 ar
    21   12   18 1
    22   13   14 ar
    23   13   15 1
    24   14   34 1
    25   15   16 2
    26   15   17 1
    27   18   19 1
    28   19   24 ar
    29   19   20 ar
    30   20   21 ar
    31   20   35 1
    32   21   22 ar
    33   21   36 1
    34   22   23 ar
    35   22   37 1
    36   23   24 ar
    37   23   25 1
    38   24   38 1
    39   25   26 2
    40   25   27 1
@<TRIPOS>MOLECULE
ZINC01949846
   32    33     0     0     0
SMALL
USER_CHARGES
N-[(5-bromo-2-hydroxy-3-nitro-phenyl)methyleneamino]-2-(3-nitro-1,2,4-triazol-1-yl)acetamide
@<TRIPOS>ATOM
      1 C1         -0.7764    1.6018   -7.2331 C.ar      1 <0>         0.0221
      2 C2         -1.4486    2.0623   -8.3471 C.ar      1 <0>        -0.2214
      3 C3         -2.5837    2.8427   -8.2041 C.ar      1 <0>         0.0436
      4 C4         -3.0545    3.1677   -6.9456 C.ar      1 <0>        -0.1864
      5 C5         -2.3954    2.7086   -5.8174 C.ar      1 <0>         0.3219
      6 C6         -1.2425    1.9235   -5.9568 C.ar      1 <0>        -0.1826
      7 C7         -0.5297    1.4353   -4.7628 C.2       1 <0>         0.1260
      8 N1         -0.9661    1.7364   -3.5781 N.2       1 <0>        -0.1808
      9 N2         -0.2884    1.2723   -2.4431 N.am      1 <0>        -0.5984
     10 C8         -0.7416    1.5850   -1.2129 C.2       1 <0>         0.5081
     11 O1         -1.7362    2.2684   -1.0884 O.2       1 <0>        -0.4651
     12 C9         -0.0127    1.0858    0.0080 C.3       1 <0>         0.1080
     13 N3         -0.6984    1.5583    1.2133 N.pl3     1 <0>        -0.3393
     14 C10        -1.1607    0.8038    2.2254 C.2       1 <0>         0.2867
     15 N4         -1.7053    1.5999    3.1093 N.2       1 <0>        -0.4936
     16 C11        -1.6177    2.8631    2.6946 C.2       1 <0>         0.2678
     17 N5         -1.0089    2.8889    1.5382 N.2       1 <0>        -0.1812
     18 N6         -2.1268    4.0455    3.4253 N.pl3     1 <0>         0.0630
     19 O2         -1.9916    5.1591    2.9509 O.2       1 <0>        -0.1065
     20 O3         -2.6808    3.9047    4.5008 O.3       1 <0>        -0.0994
     21 O4         -2.8611    3.0224   -4.5807 O.3       1 <0>        -0.5639
     22 N7         -4.2689    4.0020   -6.8036 N.pl3     1 <0>         0.0632
     23 O5         -4.8524    4.4018   -7.7952 O.2       1 <0>        -0.2546
     24 O6         -4.6845    4.2889   -5.6953 O.3       1 <0>        -0.1507
     25 Br1        -0.8170    1.6264  -10.0754 Br        1 <0>        -0.0727
     26 H1          0.1089    0.9939   -7.3484 H         1 <0>         0.1265
     27 H2         -3.1041    3.1993   -9.0807 H         1 <0>         0.1349
     28 H3          0.3722    0.8157   -4.8757 H         1 <0>         0.1110
     29 H4          0.6135    0.6528   -2.5560 H         1 <0>         0.3834
     30 H5          0.0022   -0.0141    0.0020 H         1 <0>         0.1485
     31 H6          1.0193    1.4665    0.0002 H         1 <0>         0.1347
     32 H7         -1.0926   -0.2717    2.2971 H         1 <0>         0.2471
@<TRIPOS>BOND
     1    1    6 ar
     2    1    2 ar
     3    1   26 1
     4    2    3 ar
     5    2   25 1
     6    3    4 ar
     7    3   27 1
     8    4    5 ar
     9    4   22 1
    10    5    6 ar
    11    5   21 1
    12    6    7 1
    13    7    8 2
    14    7   28 1
    15    8    9 1
    16    9   10 am
    17    9   29 1
    18   10   11 2
    19   10   12 1
    20   12   13 1
    21   12   30 1
    22   12   31 1
    23   13   17 1
    24   13   14 1
    25   14   15 2
    26   14   32 1
    27   15   16 1
    28   16   17 2
    29   16   18 1
    30   18   19 2
    31   18   20 1
    32   22   23 2
    33   22   24 1
@<TRIPOS>MOLECULE
ZINC12503147
   43    45     0     0     0
SMALL
USER_CHARGES

@<TRIPOS>ATOM
      1 C1          0.8619    0.2500    1.8483 C.2       1 <0>        -0.2371
      2 C2          1.0272   -1.0627    1.6676 C.2       1 <0>        -0.0600
      3 C3          2.3220   -1.5832    1.2337 C.2       1 <0>        -0.1978
      4 C4          2.4356   -2.9249    1.1808 C.2       1 <0>         0.1514
      5 N1          3.6135   -3.5209    0.7037 N.am      1 <0>        -0.5553
      6 C5          4.9447   -2.8793    0.5533 C.3       1 <0>         0.1144
      7 H1          5.5606   -2.8634    1.4525 H         1 <0>         0.1432
      8 C6          5.2630   -3.9933   -0.4210 C.3       1 <0>         0.1351
      9 H2          6.1961   -4.5156   -0.2093 H         1 <0>         0.1535
     10 C7          4.0448   -4.6525    0.1655 C.2       1 <0>         0.5267
     11 O1          3.6191   -5.7883    0.1515 O.2       1 <0>        -0.4574
     12 N2          5.1215   -3.6138   -1.8289 N.am      1 <0>        -0.6879
     13 C8          5.8177   -4.2713   -2.7774 C.2       1 <0>         0.5909
     14 O2          6.5627   -5.1788   -2.4647 O.2       1 <0>        -0.4821
     15 C9          5.6745   -3.8874   -4.2015 C.2       1 <0>         0.1585
     16 N3          4.8756   -2.9143   -4.5367 N.2       1 <0>        -0.2903
     17 O3          4.6452   -2.6265   -5.9038 O.3       1 <0>        -0.1742
     18 C10         3.7489   -1.5357   -6.1251 C.3       1 <0>        -0.0066
     19 C11         3.5775   -1.3190   -7.6066 C.2       1 <0>         0.5077
     20 O4          4.1681   -2.0326   -8.3994 O.co2     1 <0>        -0.6772
     21 O5          2.8483   -0.4302   -8.0123 O.co2     1 <0>        -0.6838
     22 C12         6.4383   -4.6087   -5.2421 C.2       1 <0>         0.0744
     23 C13         6.4109   -4.1821   -6.5430 C.2       1 <0>        -0.1456
     24 S1          7.4774   -5.3925   -7.3136 S.3       1 <0>        -0.0358
     25 C14         7.8496   -6.3360   -5.8422 C.2       1 <0>         0.3604
     26 N4          7.1661   -5.6785   -4.9247 N.2       1 <0>        -0.5208
     27 N5          8.6484   -7.4583   -5.7012 N.pl3     1 <0>        -0.8046
     28 S2          4.6427   -1.2319   -0.1715 S.3       1 <0>        -0.2101
     29 C15         3.3621   -0.5645    0.8953 C.3       1 <0>        -0.0280
     30 C16         1.3231   -3.7666    1.6244 C.2       1 <0>         0.5340
     31 O6          0.5171   -4.1964    0.8084 O.co2     1 <0>        -0.6588
     32 O7          1.1983   -4.0411    2.8115 O.co2     1 <0>        -0.6686
     33 H3          1.6851    0.9270    1.6739 H         1 <0>         0.0928
     34 H4         -0.0962    0.6350    2.1647 H         1 <0>         0.0949
     35 H5          0.2041   -1.7397    1.8420 H         1 <0>         0.1193
     36 H6          4.5267   -2.8893   -2.0785 H         1 <0>         0.4237
     37 H7          2.7818   -1.7634   -5.6770 H         1 <0>         0.0637
     38 H8          4.1564   -0.6327   -5.6706 H         1 <0>         0.0620
     39 H9          5.8886   -3.3452   -6.9825 H         1 <0>         0.2359
     40 H10         9.0979   -7.8340   -6.4744 H         1 <0>         0.4147
     41 H11         8.7585   -7.8689   -4.8293 H         1 <0>         0.4143
     42 H12         2.8835    0.2810    0.4010 H         1 <0>         0.1214
     43 H13         3.8314   -0.2169    1.8156 H         1 <0>         0.0892
@<TRIPOS>BOND
     1    1    2 2
     2    1   33 1
     3    1   34 1
     4    2    3 1
     5    2   35 1
     6    3   29 1
     7    3    4 2
     8    4    5 1
     9    4   30 1
    10    5   10 am
    11    5    6 1
    12    6    7 1
    13    6    8 1
    14    6   28 1
    15    8    9 1
    16    8   10 1
    17    8   12 1
    18   10   11 2
    19   12   13 am
    20   12   36 1
    21   13   14 2
    22   13   15 1
    23   15   16 2
    24   15   22 1
    25   16   17 1
    26   17   18 1
    27   18   19 1
    28   18   37 1
    29   18   38 1
    30   19   20 2
    31   19   21 1
    32   22   26 1
    33   22   23 2
    34   23   24 1
    35   23   39 1
    36   24   25 1
    37   25   26 2
    38   25   27 1
    39   27   40 1
    40   27   41 1
    41   28   29 1
    42   29   42 1
    43   29   43 1
    44   30   31 2
    45   30   32 1
@<TRIPOS>MOLECULE
ZINC45384342
   63    66     0     0     0
SMALL
USER_CHARGES

@<TRIPOS>ATOM
      1 C1         -0.0945    1.4969    0.2607 C.3       1 <0>        -0.1036
      2 C2         -0.0429   -0.0084    0.2121 C.2       1 <0>         0.0977
      3 C3          0.8629   -0.6685    0.9649 C.2       1 <0>        -0.2392
      4 C4          0.9158   -2.0761    0.9235 C.2       1 <0>         0.3335
      5 C5          0.0317   -2.7558    0.1063 C.2       1 <0>        -0.3686
      6 C6         -0.8894   -2.0275   -0.6556 C.2       1 <0>         0.5123
      7 O1         -1.6770   -2.6128   -1.3824 O.2       1 <0>        -0.6052
      8 N1         -0.9125   -0.6836   -0.5846 N.am      1 <0>        -0.5251
      9 C7         -1.8866    0.0637   -1.3839 C.3       1 <0>         0.0775
     10 C8          0.0596   -4.2609    0.0363 C.3       1 <0>         0.1906
     11 C9          1.3827   -4.7634    0.5540 C.2       1 <0>        -0.0888
     12 C10         1.4426   -5.4806    1.6964 C.2       1 <0>         0.0973
     13 N2          2.6522   -5.9292    2.1523 N.am      1 <0>        -0.5114
     14 C11         3.7825   -5.6620    1.4731 C.2       1 <0>         0.7057
     15 O2          4.8468   -6.0699    1.8964 O.2       1 <0>        -0.5865
     16 N3          3.7516   -4.9497    0.3315 N.am      1 <0>        -0.6616
     17 H1          4.5758   -4.7665   -0.1461 H         1 <0>         0.4088
     18 C12         2.5788   -4.4947   -0.1541 C.2       1 <0>         0.5704
     19 O3          2.5493   -3.8546   -1.1897 O.2       1 <0>        -0.5251
     20 C13         2.7173   -6.7074    3.3918 C.3       1 <0>         0.3209
     21 H2          1.7367   -6.7471    3.8660 H         1 <0>         0.1026
     22 C14         3.2338   -8.1346    3.1043 C.3       1 <0>        -0.1914
     23 C15         4.1186   -8.4670    4.3265 C.3       1 <0>         0.0860
     24 H3          5.1479   -8.6462    4.0155 H         1 <0>         0.0768
     25 C16         4.0321   -7.2013    5.2079 C.3       1 <0>         0.0886
     26 H4          3.2539   -7.3168    5.9624 H         1 <0>         0.0845
     27 O4          3.6893   -6.1355    4.2941 O.3       1 <0>        -0.3387
     28 C17         5.3811   -6.9227    5.8739 C.3       1 <0>         0.0889
     29 O5          5.2497   -5.8198    6.7729 O.3       1 <0>        -0.5618
     30 O6          3.6028   -9.6025    5.0241 O.3       1 <0>        -0.5617
     31 C18        -1.0559   -4.8238    0.8789 C.2       1 <0>        -0.3947
     32 C19        -1.9421   -5.7412    0.3455 C.2       1 <0>         0.3081
     33 C20        -2.9739   -6.2475    1.1610 C.2       1 <0>        -0.2461
     34 C21        -3.0819   -5.8331    2.4415 C.2       1 <0>         0.1072
     35 N4         -2.2071   -4.9310    2.9588 N.am      1 <0>        -0.5299
     36 C22        -1.2051   -4.4289    2.2135 C.2       1 <0>         0.5069
     37 O7         -0.4274   -3.6236    2.7012 O.2       1 <0>        -0.5483
     38 C23        -2.3532   -4.5029    4.3522 C.3       1 <0>         0.0767
     39 C24        -4.1877   -6.3779    3.3084 C.3       1 <0>        -0.1037
     40 O8         -1.8207   -6.1468   -0.9411 O.3       1 <0>        -0.7062
     41 O9          1.8191   -2.7527    1.6725 O.3       1 <0>        -0.6750
     42 H5         -0.7799    1.8118    1.0476 H         1 <0>         0.0619
     43 H6          0.9015    1.8881    0.4685 H         1 <0>         0.0684
     44 H7         -0.4424    1.8797   -0.6987 H         1 <0>         0.0585
     45 H8          1.5453   -0.1193    1.5967 H         1 <0>         0.1033
     46 H9         -1.4552    0.2971   -2.3573 H         1 <0>         0.0447
     47 H10        -2.7844   -0.5394   -1.5195 H         1 <0>         0.0757
     48 H11        -2.1449    0.9893   -0.8696 H         1 <0>         0.0563
     49 H12        -0.0704   -4.5790   -0.9981 H         1 <0>         0.0661
     50 H13         0.5400   -5.6989    2.2479 H         1 <0>         0.1563
     51 H14         2.4015   -8.8349    3.0335 H         1 <0>         0.0922
     52 H15         3.8256   -8.1495    2.1890 H         1 <0>         0.0963
     53 H16         5.7027   -7.8056    6.4264 H         1 <0>         0.0580
     54 H17         6.1207   -6.6828    5.1100 H         1 <0>         0.0593
     55 H18         6.0684   -5.5867    7.2317 H         1 <0>         0.3749
     56 H19         3.5795  -10.4118    4.4953 H         1 <0>         0.3810
     57 H20        -3.6763   -6.9647    0.7627 H         1 <0>         0.1082
     58 H21        -1.7755   -5.1642    4.9980 H         1 <0>         0.0453
     59 H22        -1.9882   -3.4813    4.4586 H         1 <0>         0.0771
     60 H23        -3.4046   -4.5446    4.6368 H         1 <0>         0.0560
     61 H24        -4.7874   -7.0825    2.7322 H         1 <0>         0.0706
     62 H25        -3.7564   -6.8875    4.1700 H         1 <0>         0.0608
     63 H26        -4.8192   -5.5577    3.6499 H         1 <0>         0.0608
@<TRIPOS>BOND
     1    1    2 1
     2    1   42 1
     3    1   43 1
     4    1   44 1
     5    2    8 1
     6    2    3 2
     7    3    4 1
     8    3   45 1
     9    4    5 2
    10    4   41 1
    11    5    6 1
    12    5   10 1
    13    6    7 2
    14    6    8 am
    15    8    9 1
    16    9   46 1
    17    9   47 1
    18    9   48 1
    19   10   11 1
    20   10   31 1
    21   10   49 1
    22   11   18 1
    23   11   12 2
    24   12   13 1
    25   12   50 1
    26   13   14 am
    27   13   20 1
    28   14   15 2
    29   14   16 am
    30   16   17 1
    31   16   18 am
    32   18   19 2
    33   20   21 1
    34   20   27 1
    35   20   22 1
    36   22   23 1
    37   22   51 1
    38   22   52 1
    39   23   24 1
    40   23   25 1
    41   23   30 1
    42   25   26 1
    43   25   27 1
    44   25   28 1
    45   28   29 1
    46   28   53 1
    47   28   54 1
    48   29   55 1
    49   30   56 1
    50   31   36 1
    51   31   32 2
    52   32   33 1
    53   32   40 1
    54   33   34 2
    55   33   57 1
    56   34   35 1
    57   34   39 1
    58   35   36 am
    59   35   38 1
    60   36   37 2
    61   38   58 1
    62   38   59 1
    63   38   60 1
    64   39   61 1
    65   39   62 1
    66   39   63 1
@<TRIPOS>MOLECULE
ZINC66200323
   51    53     0     0     0
SMALL
USER_CHARGES

@<TRIPOS>ATOM
      1 C1          0.6526   -0.7060    1.2988 C.3       1 <0>        -0.1812
      2 C2         -0.2145    0.3133    2.0405 C.3       1 <0>         0.0644
      3 H1         -0.2255    1.2522    1.4869 H         1 <0>         0.1089
      4 C3         -1.6205   -0.2157    2.1601 C.2       1 <0>         0.5146
      5 O1         -2.0815   -0.4711    3.2525 O.2       1 <0>        -0.4823
      6 N1         -2.3657   -0.4051    1.0532 N.am      1 <0>        -0.6669
      7 C4         -3.7064   -0.7886    1.1695 C.ar      1 <0>         0.1733
      8 C5         -4.2684   -1.6467    0.2334 C.ar      1 <0>        -0.1646
      9 C6         -5.5920   -2.0232    0.3510 C.ar      1 <0>        -0.0032
     10 C7         -6.3574   -1.5468    1.3995 C.ar      1 <0>        -0.6296
     11 C8         -5.8008   -0.6918    2.3330 C.ar      1 <0>        -0.0023
     12 C9         -4.4762   -0.3164    2.2245 C.ar      1 <0>        -0.1428
     13 S1         -8.0456   -2.0296    1.5459 S.o2      1 <0>         2.6265
     14 O2         -8.6934   -1.0168    2.3034 O.2       1 <0>        -1.0166
     15 O3         -8.4765   -2.4000    0.2435 O.2       1 <0>        -1.0175
     16 N2         -8.0832   -3.4059    2.4661 N.2       1 <0>        -1.0455
     17 C10        -9.2994   -4.0199    2.7504 C.ar      1 <0>         0.4104
     18 C11        -9.3348   -5.1804    3.5329 C.ar      1 <0>         0.2350
     19 N3        -10.4944   -5.7578    3.7984 N.ar      1 <0>        -0.4824
     20 C12       -11.6171   -5.2386    3.3249 C.ar      1 <0>        -0.0505
     21 C13       -11.5831   -4.0959    2.5537 C.ar      1 <0>         0.0677
     22 N4        -10.4282   -3.5058    2.2863 N.ar      1 <0>        -0.5460
     23 O4         -8.1829   -5.7111    4.0169 O.3       1 <0>        -0.2821
     24 C14        -8.2964   -6.8960    4.8075 C.3       1 <0>         0.0398
     25 O5          0.3232    0.5362    3.3455 O.3       1 <0>        -0.2693
     26 C15         1.3151    1.4587    3.4549 C.ar      1 <0>         0.1876
     27 C16         1.8319    2.0615    2.3172 C.ar      1 <0>        -0.2155
     28 C17         2.8398    2.9994    2.4311 C.ar      1 <0>        -0.0093
     29 C18         3.3335    3.3375    3.6775 C.ar      1 <0>        -0.0921
     30 C19         2.8205    2.7379    4.8129 C.ar      1 <0>        -0.0120
     31 C20         1.8086    1.8036    4.7048 C.ar      1 <0>        -0.1459
     32 N5          4.4134    4.3426    3.7966 N.pl3     1 <0>         0.0406
     33 O6          4.8630    4.8672    2.8045 O.2       1 <0>        -0.1653
     34 O7          4.8458    4.6390    4.8860 O.3       1 <0>        -0.1627
     35 H2          1.6695   -0.3233    1.2123 H         1 <0>         0.0802
     36 H3          0.6635   -1.6449    1.8524 H         1 <0>         0.0830
     37 H4          0.2424   -0.8760    0.3033 H         1 <0>         0.0864
     38 H5         -1.9727   -0.2756    0.1759 H         1 <0>         0.4117
     39 H6         -3.6712   -2.0189   -0.5859 H         1 <0>         0.1308
     40 H7         -6.0298   -2.6903   -0.3769 H         1 <0>         0.1429
     41 H8         -6.4014   -0.3211    3.1506 H         1 <0>         0.1419
     42 H9         -4.0406    0.3473    2.9568 H         1 <0>         0.1352
     43 H10       -12.5628   -5.7123    3.5433 H         1 <0>         0.1475
     44 H11       -12.5023   -3.6780    2.1704 H         1 <0>         0.1477
     45 H12        -7.3049   -7.2140    5.1300 H         1 <0>         0.0838
     46 H13        -8.9146   -6.6917    5.6816 H         1 <0>         0.0467
     47 H14        -8.7562   -7.6862    4.2139 H         1 <0>         0.0465
     48 H15         1.4468    1.7975    1.3434 H         1 <0>         0.1538
     49 H16         3.2427    3.4686    1.5457 H         1 <0>         0.1574
     50 H17         3.2080    3.0034    5.7853 H         1 <0>         0.1618
     51 H18         1.4051    1.3387    5.5922 H         1 <0>         0.1595
@<TRIPOS>BOND
     1    1    2 1
     2    1   35 1
     3    1   36 1
     4    1   37 1
     5    2    3 1
     6    2    4 1
     7    2   25 1
     8    4    5 2
     9    4    6 am
    10    6    7 1
    11    6   38 1
    12    7   12 ar
    13    7    8 ar
    14    8    9 ar
    15    8   39 1
    16    9   10 ar
    17    9   40 1
    18   10   11 ar
    19   10   13 1
    20   11   12 ar
    21   11   41 1
    22   12   42 1
    23   13   14 2
    24   13   15 2
    25   13   16 1
    26   16   17 1
    27   17   22 ar
    28   17   18 ar
    29   18   19 ar
    30   18   23 1
    31   19   20 ar
    32   20   21 ar
    33   20   43 1
    34   21   22 ar
    35   21   44 1
    36   23   24 1
    37   24   45 1
    38   24   46 1
    39   24   47 1
    40   25   26 1
    41   26   31 ar
    42   26   27 ar
    43   27   28 ar
    44   27   48 1
    45   28   29 ar
    46   28   49 1
    47   29   30 ar
    48   29   32 1
    49   30   31 ar
    50   30   50 1
    51   31   51 1
    52   32   33 2
    53   32   34 1
@<TRIPOS>MOLECULE
ZINC20275663
   57    60     0     0     0
SMALL
USER_CHARGES
2-[(N'E)-N'-[(5S,8R,9R,10R,13R,14R)-10,13-dimethyl-1,2,3,4,5,6,7,8,9,11,12,14,15,16-tetradecahydrocyclopenta[a]phenanthren-17-ylidene]hydrazino]-2-oxo-acetic acid
@<TRIPOS>ATOM
      1 C1         -0.1645   -2.6418    0.2186 C.3       1 <0>        -0.1490
      2 C2          0.6749   -2.0532    1.3516 C.3       1 <0>        -0.0358
      3 C3          0.0348   -2.4523    2.6853 C.3       1 <0>        -0.1086
      4 C4         -0.0371   -3.9762    2.7893 C.3       1 <0>        -0.1190
      5 C5          1.3361   -4.6207    2.6305 C.3       1 <0>        -0.1191
      6 C6          2.0159   -4.1733    1.3318 C.3       1 <0>        -0.1174
      7 C7          2.0797   -2.6568    1.3184 C.3       1 <0>        -0.0787
      8 H1          2.6406   -2.3873    2.2255 H         1 <0>         0.0602
      9 C8          2.8474   -2.0807    0.1382 C.3       1 <0>        -0.1114
     10 C9          3.2392   -0.6503    0.5332 C.3       1 <0>        -0.1216
     11 C10         2.1602    0.0099    1.3640 C.3       1 <0>        -0.0639
     12 H2          2.4892   -0.2528    2.3803 H         1 <0>         0.0517
     13 C11         0.7521   -0.5449    1.2037 C.3       1 <0>        -0.0643
     14 H3          0.1930   -0.1477    2.0637 H         1 <0>         0.0522
     15 C12         0.0021   -0.0041    0.0020 C.3       1 <0>        -0.1082
     16 C13        -0.0188    1.5383    0.0105 C.3       1 <0>        -0.1056
     17 C14         1.4103    2.0262   -0.0005 C.3       1 <0>         0.0196
     18 C15         2.1339    1.5087    1.2572 C.3       1 <0>        -0.0810
     19 H4          1.6369    1.6934    2.2210 H         1 <0>         0.0721
     20 C16         3.4732    2.2514    1.1631 C.3       1 <0>        -0.1066
     21 C17         3.0279    3.6660    0.6910 C.3       1 <0>        -0.1216
     22 C18         1.6062    3.5201    0.1536 C.2       1 <0>         0.0735
     23 N1          0.7639    4.4376   -0.1113 N.2       1 <0>        -0.2122
     24 N2          1.1056    5.7815    0.0891 N.am      1 <0>        -0.5835
     25 C19         0.2140    6.7525   -0.1912 C.2       1 <0>         0.4945
     26 O1         -0.8852    6.4628   -0.6174 O.2       1 <0>        -0.5062
     27 C20         0.5781    8.1842    0.0223 C.2       1 <0>         0.4712
     28 O2          1.6761    8.4736    0.4481 O.co2     1 <0>        -0.6133
     29 O3         -0.3120    9.1537   -0.2576 O.co2     1 <0>        -0.7028
     30 C21         2.0860    1.6221   -1.3078 C.3       1 <0>        -0.1405
     31 H5         -1.1740   -2.2056    0.2454 H         1 <0>         0.0566
     32 H6         -0.2330   -3.7327    0.3417 H         1 <0>         0.0573
     33 H7          0.3093   -2.4107   -0.7469 H         1 <0>         0.0583
     34 H8          0.6407   -2.0591    3.5150 H         1 <0>         0.0590
     35 H9         -0.9814   -2.0352    2.7437 H         1 <0>         0.0618
     36 H10        -0.4388   -4.2580    3.7738 H         1 <0>         0.0574
     37 H11        -0.6952   -4.3670    1.9993 H         1 <0>         0.0630
     38 H12         1.9764   -4.3326    3.4772 H         1 <0>         0.0565
     39 H13         1.2272   -5.7151    2.6088 H         1 <0>         0.0573
     40 H14         3.0321   -4.5920    1.2868 H         1 <0>         0.0592
     41 H15         1.4332   -4.5319    0.4705 H         1 <0>         0.0634
     42 H16         3.7396   -2.6948   -0.0538 H         1 <0>         0.0591
     43 H17         2.2033   -2.0808   -0.7535 H         1 <0>         0.0655
     44 H18         4.1675   -0.6740    1.1229 H         1 <0>         0.0575
     45 H19         3.3967   -0.0493   -0.3746 H         1 <0>         0.0709
     46 H20         0.4941   -0.3448   -0.9210 H         1 <0>         0.0644
     47 H21        -1.0348   -0.3707    0.0215 H         1 <0>         0.0652
     48 H22        -0.5508    1.9027   -0.8807 H         1 <0>         0.0721
     49 H23        -0.5337    1.8931    0.9155 H         1 <0>         0.0639
     50 H24         3.9579    2.2598    2.1505 H         1 <0>         0.0680
     51 H25         4.1253    1.7413    0.4389 H         1 <0>         0.0764
     52 H26         3.0555    4.3622    1.5422 H         1 <0>         0.0771
     53 H27         3.7096    4.0215   -0.0957 H         1 <0>         0.0827
     54 H28         2.1016    6.0441    0.4752 H         1 <0>         0.4118
     55 H29         3.1260    1.9805   -1.3090 H         1 <0>         0.0596
     56 H30         1.5434    2.0684   -2.1542 H         1 <0>         0.0605
     57 H31         2.0757    0.5262   -1.4024 H         1 <0>         0.0708
@<TRIPOS>BOND
     1    1    2 1
     2    1   31 1
     3    1   32 1
     4    1   33 1
     5    2    7 1
     6    2   13 1
     7    2    3 1
     8    3    4 1
     9    3   34 1
    10    3   35 1
    11    4    5 1
    12    4   36 1
    13    4   37 1
    14    5    6 1
    15    5   38 1
    16    5   39 1
    17    6    7 1
    18    6   40 1
    19    6   41 1
    20    7    8 1
    21    7    9 1
    22    9   10 1
    23    9   42 1
    24    9   43 1
    25   10   11 1
    26   10   44 1
    27   10   45 1
    28   11   12 1
    29   11   18 1
    30   11   13 1
    31   13   14 1
    32   13   15 1
    33   15   16 1
    34   15   46 1
    35   15   47 1
    36   16   17 1
    37   16   48 1
    38   16   49 1
    39   17   22 1
    40   17   18 1
    41   17   30 1
    42   18   19 1
    43   18   20 1
    44   20   21 1
    45   20   50 1
    46   20   51 1
    47   21   22 1
    48   21   52 1
    49   21   53 1
    50   22   23 2
    51   23   24 1
    52   24   25 am
    53   24   54 1
    54   25   26 2
    55   25   27 1
    56   27   28 2
    57   27   29 1
    58   30   55 1
    59   30   56 1
    60   30   57 1
@<TRIPOS>MOLECULE
ZINC39702339
   47    48     0     0     0
SMALL
USER_CHARGES

@<TRIPOS>ATOM
      1 C1          2.1336   -2.3976   -2.3473 C.3       1 <0>        -0.1086
      2 C2          1.0500   -1.9176   -1.4165 C.ar      1 <0>        -0.1289
      3 C3          0.1704   -0.9392   -1.8311 C.ar      1 <0>        -0.0252
      4 C4         -0.8337   -0.4958   -0.9670 C.ar      1 <0>        -0.1540
      5 C5         -0.9392   -1.0477    0.3124 C.ar      1 <0>         0.0114
      6 C6         -0.0528   -2.0251    0.7132 C.ar      1 <0>        -0.6898
      7 C7          0.9363   -2.4632   -0.1501 C.ar      1 <0>         0.0092
      8 C8          1.8972   -3.5361    0.2932 C.3       1 <0>        -0.1745
      9 S1         -0.1839   -2.7225    2.3260 S.o2      1 <0>         2.6954
     10 O1         -1.2920   -2.0912    2.9527 O.2       1 <0>        -0.9561
     11 O2         -0.1000   -4.1321    2.1670 O.2       1 <0>        -0.9671
     12 N1          1.1638   -2.2604    3.1703 N.pl3     1 <0>        -1.1121
     13 C9          1.3614   -0.8517    3.5206 C.3       1 <0>         0.1588
     14 H1          0.8417   -0.2215    2.7989 H         1 <0>         0.0880
     15 C10         0.8027   -0.5912    4.9209 C.3       1 <0>        -0.1375
     16 C11         1.0091    0.8800    5.2867 C.3       1 <0>        -0.1206
     17 C12         2.5038    1.2060    5.2652 C.3       1 <0>        -0.1144
     18 C13         3.0625    0.9455    3.8649 C.3       1 <0>        -0.0890
     19 H2          2.5428    1.5757    3.1433 H         1 <0>         0.0753
     20 C14         2.8561   -0.5257    3.4991 C.3       1 <0>        -0.0856
     21 H3          3.3759   -1.1560    4.2207 H         1 <0>         0.0757
     22 C15         3.4149   -0.7863    2.0988 C.3       1 <0>        -0.1579
     23 C16         4.5572    1.2715    3.8435 C.3       1 <0>        -0.1463
     24 C17        -1.7780    0.5506   -1.4030 C.2       1 <0>         0.5212
     25 O3         -1.6828    1.0319   -2.5232 O.co2     1 <0>        -0.6853
     26 O4         -2.6559    0.9366   -0.6443 O.co2     1 <0>        -0.6801
     27 H4          1.7604   -3.2335   -2.9390 H         1 <0>         0.0663
     28 H5          2.4283   -1.5852   -3.0115 H         1 <0>         0.0654
     29 H6          2.9960   -2.7215   -1.7646 H         1 <0>         0.0651
     30 H7          0.2581   -0.5168   -2.8212 H         1 <0>         0.1331
     31 H8         -1.7128   -0.7094    0.9858 H         1 <0>         0.1461
     32 H9          2.7137   -3.0829    0.8553 H         1 <0>         0.0800
     33 H10         1.3745   -4.2532    0.9261 H         1 <0>         0.1031
     34 H11         2.2986   -4.0483   -0.5813 H         1 <0>         0.0801
     35 H12         1.8223   -2.9225    3.4328 H         1 <0>         0.4139
     36 H13        -0.2622   -0.8234    4.9362 H         1 <0>         0.0803
     37 H14         1.3224   -1.2214    5.6425 H         1 <0>         0.0661
     38 H15         0.4893    1.5103    4.5651 H         1 <0>         0.0680
     39 H16         0.6110    1.0657    6.2843 H         1 <0>         0.0655
     40 H17         2.6508    2.2541    5.5259 H         1 <0>         0.0621
     41 H18         3.0235    0.5758    5.9869 H         1 <0>         0.0609
     42 H19         2.9441   -0.1075    1.3877 H         1 <0>         0.0591
     43 H20         4.4922   -0.6205    2.1008 H         1 <0>         0.0576
     44 H21         3.2064   -1.8165    1.8103 H         1 <0>         0.0620
     45 H22         5.0770    0.6413    4.5651 H         1 <0>         0.0521
     46 H23         4.9553    1.0859    2.8459 H         1 <0>         0.0580
     47 H24         4.7043    2.3196    4.1041 H         1 <0>         0.0532
@<TRIPOS>BOND
     1    1    2 1
     2    1   27 1
     3    1   28 1
     4    1   29 1
     5    2    7 ar
     6    2    3 ar
     7    3    4 ar
     8    3   30 1
     9    4    5 ar
    10    4   24 1
    11    5    6 ar
    12    5   31 1
    13    6    7 ar
    14    6    9 1
    15    7    8 1
    16    8   32 1
    17    8   33 1
    18    8   34 1
    19    9   10 2
    20    9   11 2
    21    9   12 1
    22   12   13 1
    23   12   35 1
    24   13   14 1
    25   13   20 1
    26   13   15 1
    27   15   16 1
    28   15   36 1
    29   15   37 1
    30   16   17 1
    31   16   38 1
    32   16   39 1
    33   17   18 1
    34   17   40 1
    35   17   41 1
    36   18   19 1
    37   18   20 1
    38   18   23 1
    39   20   21 1
    40   20   22 1
    41   22   42 1
    42   22   43 1
    43   22   44 1
    44   23   45 1
    45   23   46 1
    46   23   47 1
    47   24   25 2
    48   24   26 1
@<TRIPOS>MOLECULE
ZINC50985075
   36    37     0     0     0
SMALL
USER_CHARGES

@<TRIPOS>ATOM
      1 C1          2.5170   -0.8691    0.7100 C.3       1 <0>        -0.0725
      2 C2          1.0749   -1.0397    0.3073 C.2       1 <0>        -0.1670
      3 C3          0.5956   -1.4648   -0.9574 C.ar      1 <0>        -0.0824
      4 C4          1.2193   -1.8368   -2.1539 C.ar      1 <0>        -0.0738
      5 C5          0.4612   -2.2070   -3.2276 C.ar      1 <0>        -0.1310
      6 C6         -0.9245   -2.2174   -3.1420 C.ar      1 <0>        -0.1058
      7 C7         -1.5600   -1.8546   -1.9727 C.ar      1 <0>        -0.0147
      8 C8         -0.8086   -1.4739   -0.8663 C.ar      1 <0>         0.0476
      9 O1         -1.1377   -1.0772    0.3799 O.3       1 <0>        -0.1584
     10 C9         -0.0175   -0.8206    1.0903 C.2       1 <0>         0.1068
     11 C10         0.0165   -0.3737    2.4819 C.2       1 <0>         0.4154
     12 O2          0.1133    0.9430    2.7661 O.3       1 <0>        -0.6157
     13 C11        -0.0511   -1.3067    3.5154 C.2       1 <0>        -0.3969
     14 C12        -0.1370   -0.8645    4.8748 C.1       1 <0>         0.3187
     15 N1         -0.2051   -0.5137    5.9531 N.1       1 <0>        -0.5239
     16 C13        -0.0342   -2.7399    3.2109 C.2       1 <0>         0.5951
     17 O3          0.1429   -3.1171    2.0672 O.2       1 <0>        -0.5659
     18 N2         -0.2148   -3.6406    4.1972 N.am      1 <0>        -0.7409
     19 C14        -0.1980   -5.0735    3.8927 C.3       1 <0>         0.1414
     20 C15         1.2462   -5.5785    3.8957 C.3       1 <0>        -0.1603
     21 C16        -1.0047   -5.8291    4.9506 C.3       1 <0>        -0.1587
     22 Cl1        -3.2935   -1.8725   -1.8828 Cl        1 <0>        -0.0708
     23 H1          2.8928   -1.8063    1.1207 H         1 <0>         0.0665
     24 H2          3.1078   -0.5922   -0.1631 H         1 <0>         0.0589
     25 H3          2.5935   -0.0856    1.4639 H         1 <0>         0.0681
     26 H4          2.2968   -1.8308   -2.2277 H         1 <0>         0.1277
     27 H5          0.9432   -2.4936   -4.1506 H         1 <0>         0.1310
     28 H6         -1.5108   -2.5122   -3.9998 H         1 <0>         0.1369
     29 H7         -0.3560   -3.3400    5.1086 H         1 <0>         0.3918
     30 H8         -0.6396   -5.2414    2.9104 H         1 <0>         0.0837
     31 H9          1.8210   -5.0402    3.1420 H         1 <0>         0.0618
     32 H10         1.6879   -5.4106    4.8779 H         1 <0>         0.0509
     33 H11         1.2588   -6.6447    3.6692 H         1 <0>         0.0558
     34 H12        -2.0336   -5.4693    4.9485 H         1 <0>         0.0590
     35 H13        -0.9922   -6.8953    4.7240 H         1 <0>         0.0654
     36 H14        -0.5631   -5.6612    5.9328 H         1 <0>         0.0562
@<TRIPOS>BOND
     1    1    2 1
     2    1   23 1
     3    1   24 1
     4    1   25 1
     5    2   10 2
     6    2    3 1
     7    3    8 ar
     8    3    4 ar
     9    4    5 ar
    10    4   26 1
    11    5    6 ar
    12    5   27 1
    13    6    7 ar
    14    6   28 1
    15    7    8 ar
    16    7   22 1
    17    8    9 1
    18    9   10 1
    19   10   11 1
    20   11   12 1
    21   11   13 2
    22   13   14 1
    23   13   16 1
    24   14   15 3
    25   16   17 2
    26   16   18 am
    27   18   19 1
    28   18   29 1
    29   19   20 1
    30   19   21 1
    31   19   30 1
    32   20   31 1
    33   20   32 1
    34   20   33 1
    35   21   34 1
    36   21   35 1
    37   21   36 1
@<TRIPOS>MOLECULE
ZINC05790526
   28    30     0     0     0
SMALL
USER_CHARGES

@<TRIPOS>ATOM
      1 C1         -0.0167    1.3783    0.0096 C.ar      1 <0>        -0.0512
      2 C2          1.1697    2.0890    0.0021 C.ar      1 <0>        -0.1064
      3 C3          2.3780    1.4185   -0.0135 C.ar      1 <0>         0.0131
      4 C4          2.3995    0.0290   -0.0212 C.ar      1 <0>         0.1533
      5 C5          1.2068   -0.6804   -0.0132 C.ar      1 <0>        -0.0467
      6 C6          0.0021   -0.0041    0.0020 C.ar      1 <0>        -0.1770
      7 C7         -1.2932   -0.7742    0.0108 C.3       1 <0>         0.5142
      8 F1         -2.3681    0.1211    0.0263 F         1 <0>        -0.1744
      9 F2         -1.3684   -1.5733   -1.1351 F         1 <0>        -0.1684
     10 F3         -1.3457   -1.5856    1.1493 F         1 <0>        -0.1743
     11 N1          3.6234   -0.6546   -0.0375 N.pl3     1 <0>        -0.4623
     12 C8          4.3600   -1.0720    1.0510 C.2       1 <0>         0.1658
     13 N2          5.4332   -1.6695    0.5825 N.2       1 <0>        -0.2352
     14 N3          5.4190   -1.6549   -0.7022 N.2       1 <0>        -0.3302
     15 C9          4.3343   -1.0527   -1.1369 C.2       1 <0>         0.3990
     16 S1          3.8823   -0.8011   -2.8212 S.3       1 <0>        -0.7667
     17 C10         4.0108   -0.8837    2.4695 C.2       1 <0>         0.1838
     18 C11         4.8582   -1.0278    3.5485 C.2       1 <0>        -0.2300
     19 C12         4.1234   -0.7582    4.7022 C.2       1 <0>         0.0506
     20 N4          2.8949   -0.4648    4.3589 N.2       1 <0>        -0.2891
     21 N5          2.7891   -0.5278    2.9639 N.pl3     1 <0>        -0.4765
     22 H1          1.9902   -0.3524    2.4425 H         1 <0>         0.4305
     23 Cl1         3.8671    2.3108   -0.0241 Cl        1 <0>        -0.0258
     24 H2         -0.9598    1.9043    0.0260 H         1 <0>         0.1553
     25 H3          1.1518    3.1688    0.0081 H         1 <0>         0.1552
     26 H4          1.2202   -1.7603   -0.0195 H         1 <0>         0.1478
     27 H5          5.9023   -1.3007    3.5070 H         1 <0>         0.1580
     28 H6          4.5047   -0.7872    5.7122 H         1 <0>         0.1877
@<TRIPOS>BOND
     1    1    6 ar
     2    1    2 ar
     3    1   24 1
     4    2    3 ar
     5    2   25 1
     6    3    4 ar
     7    3   23 1
     8    4    5 ar
     9    4   11 1
    10    5    6 ar
    11    5   26 1
    12    6    7 1
    13    7    8 1
    14    7    9 1
    15    7   10 1
    16   11   15 1
    17   11   12 1
    18   12   13 2
    19   12   17 1
    20   13   14 1
    21   14   15 2
    22   15   16 1
    23   17   21 1
    24   17   18 2
    25   18   19 1
    26   18   27 1
    27   19   20 2
    28   19   28 1
    29   20   21 1
    30   21   22 1
@<TRIPOS>MOLECULE
ZINC62828212
   36    37     0     0     0
SMALL
USER_CHARGES

@<TRIPOS>ATOM
      1 C1         -0.0184    1.5028    0.0103 C.3       1 <0>        -0.0688
      2 C2          0.0021   -0.0041    0.0020 C.2       1 <0>        -0.1552
      3 C3         -1.0392   -0.8719    0.0017 C.2       1 <0>        -0.1627
      4 C4         -0.7802   -2.2296   -0.0075 C.2       1 <0>        -0.1452
      5 C5          0.5074   -2.6532   -0.0160 C.2       1 <0>        -0.1530
      6 S1          1.4039   -1.1093   -0.0179 S.3       1 <0>         0.0526
      7 C6          1.0430   -4.0617   -0.0269 C.3       1 <0>         0.2390
      8 H1          0.2712   -4.7467    0.3242 H         1 <0>         0.1259
      9 C7          1.4518   -4.4409   -1.4516 C.3       1 <0>        -0.1581
     10 N1          2.2097   -4.1473    0.8550 N.am      1 <0>        -0.6196
     11 C8          3.3887   -3.3182    0.5926 C.3       1 <0>         0.0625
     12 C9          2.1984   -4.9887    1.9078 C.2       1 <0>         0.6990
     13 O1          1.2200   -5.6767    2.1256 O.2       1 <0>        -0.5683
     14 N2          3.2717   -5.0674    2.7191 N.am      1 <0>        -0.6108
     15 C10         3.2601   -5.9318    3.8006 C.2       1 <0>         0.0678
     16 C11         4.2645   -6.1403    4.7396 C.2       1 <0>        -0.2504
     17 C12         3.9862   -7.1110    5.7756 C.2       1 <0>        -0.0747
     18 C13         2.7820   -7.7056    5.7143 C.2       1 <0>        -0.2867
     19 S2          2.0282   -6.9631    4.2839 S.3       1 <0>         0.2000
     20 C14         5.4954   -5.4395    4.6843 C.2       1 <0>         0.5397
     21 O2          6.3579   -5.6488    5.5288 O.co2     1 <0>        -0.6921
     22 O3          5.6966   -4.6245    3.7921 O.co2     1 <0>        -0.7093
     23 H2          1.0042    1.8801    0.0026 H         1 <0>         0.0712
     24 H3         -0.5455    1.8639   -0.8728 H         1 <0>         0.0778
     25 H4         -0.5286    1.8543    0.9071 H         1 <0>         0.0782
     26 H5         -2.0560   -0.5079    0.0090 H         1 <0>         0.1293
     27 H6         -1.5916   -2.9424   -0.0076 H         1 <0>         0.1327
     28 H7          0.5838   -4.3773   -2.1078 H         1 <0>         0.0735
     29 H8          2.2236   -3.7560   -1.8027 H         1 <0>         0.0626
     30 H9          1.8393   -5.4597   -1.4595 H         1 <0>         0.0710
     31 H10         3.2893   -2.3684    1.1180 H         1 <0>         0.0655
     32 H11         4.2819   -3.8355    0.9429 H         1 <0>         0.0849
     33 H12         3.4722   -3.1339   -0.4785 H         1 <0>         0.0793
     34 H13         4.0523   -4.5185    2.5454 H         1 <0>         0.4320
     35 H14         4.7018   -7.3439    6.5503 H         1 <0>         0.1369
     36 H15         2.3694   -8.4519    6.3770 H         1 <0>         0.1735
@<TRIPOS>BOND
     1    1    2 1
     2    1   23 1
     3    1   24 1
     4    1   25 1
     5    2    6 1
     6    2    3 2
     7    3    4 1
     8    3   26 1
     9    4    5 2
    10    4   27 1
    11    5    6 1
    12    5    7 1
    13    7    8 1
    14    7    9 1
    15    7   10 1
    16    9   28 1
    17    9   29 1
    18    9   30 1
    19   10   11 1
    20   10   12 am
    21   11   31 1
    22   11   32 1
    23   11   33 1
    24   12   13 2
    25   12   14 am
    26   14   15 1
    27   14   34 1
    28   15   19 1
    29   15   16 2
    30   16   17 1
    31   16   20 1
    32   17   18 2
    33   17   35 1
    34   18   19 1
    35   18   36 1
    36   20   21 2
    37   20   22 1
@<TRIPOS>MOLECULE
ZINC36967606
   37    39     0     0     0
SMALL
USER_CHARGES

@<TRIPOS>ATOM
      1 C1          1.0756   -0.4225   -0.8084 C.ar      1 <0>        -0.0333
      2 C2          2.2340    0.3328   -0.7966 C.ar      1 <0>        -0.1531
      3 C3          2.2941    1.4693   -0.0072 C.ar      1 <0>         0.1847
      4 N1          1.2644    1.8407    0.7317 N.ar      1 <0>        -0.4827
      5 C4          0.1410    1.1543    0.7534 C.ar      1 <0>         0.1774
      6 C5          0.0011   -0.0028   -0.0141 C.ar      1 <0>        -0.1356
      7 C6         -1.2603   -0.7724    0.0104 C.2       1 <0>         0.6005
      8 O1         -2.3229   -0.1940    0.1291 O.2       1 <0>        -0.5522
      9 N2         -1.2326   -2.1154   -0.0988 N.am      1 <0>        -0.5760
     10 C7         -2.3834   -2.9964   -0.2139 C.3       1 <0>         0.1390
     11 H1         -2.5842   -3.1885   -1.2679 H         1 <0>         0.0633
     12 C8         -3.6666   -2.5725    0.4691 C.3       1 <0>        -0.1187
     13 C9         -4.7246   -3.6461    0.1647 C.3       1 <0>        -0.1136
     14 C10        -4.2654   -5.0260    0.6263 C.3       1 <0>        -0.1206
     15 C11        -2.9005   -5.3960    0.0242 C.3       1 <0>        -0.1044
     16 C12        -1.9205   -4.3146    0.4644 C.3       1 <0>        -0.1036
     17 H2         -1.8917   -4.2127    1.5492 H         1 <0>         0.0894
     18 C13        -0.5103   -4.4469   -0.1316 C.3       1 <0>        -0.1041
     19 C14        -0.0230   -2.9713   -0.1306 C.3       1 <0>         0.0487
     20 H3          0.5528   -2.7672   -1.0333 H         1 <0>         0.0723
     21 C15         0.8212   -2.7129    1.0907 C.2       1 <0>         0.4913
     22 O2          0.3907   -2.0144    1.9927 O.co2     1 <0>        -0.6725
     23 O3          1.9346   -3.2022    1.1769 O.co2     1 <0>        -0.6891
     24 Cl1         3.7462    2.4206    0.0115 Cl        1 <0>        -0.0411
     25 H4          0.9998   -1.3108   -1.4179 H         1 <0>         0.1479
     26 H5          3.0829    0.0393   -1.3963 H         1 <0>         0.1462
     27 H6         -0.6792    1.4895    1.3709 H         1 <0>         0.1701
     28 H7         -3.5082   -2.5028    1.5453 H         1 <0>         0.0666
     29 H8         -3.9935   -1.6088    0.0785 H         1 <0>         0.0835
     30 H9         -5.6515   -3.3888    0.6771 H         1 <0>         0.0617
     31 H10        -4.9076   -3.6720   -0.9095 H         1 <0>         0.0576
     32 H11        -4.1882   -5.0305    1.7135 H         1 <0>         0.0608
     33 H12        -5.0029   -5.7678    0.3197 H         1 <0>         0.0582
     34 H13        -2.5781   -6.3655    0.4039 H         1 <0>         0.0660
     35 H14        -2.9709   -5.4273   -1.0631 H         1 <0>         0.0649
     36 H15         0.1231   -5.0700    0.4998 H         1 <0>         0.0832
     37 H16        -0.5515   -4.8388   -1.1478 H         1 <0>         0.0674
@<TRIPOS>BOND
     1    1    6 ar
     2    1    2 ar
     3    1   25 1
     4    2    3 ar
     5    2   26 1
     6    3    4 ar
     7    3   24 1
     8    4    5 ar
     9    5    6 ar
    10    5   27 1
    11    6    7 1
    12    7    8 2
    13    7    9 am
    14    9   19 1
    15    9   10 1
    16   10   11 1
    17   10   16 1
    18   10   12 1
    19   12   13 1
    20   12   28 1
    21   12   29 1
    22   13   14 1
    23   13   30 1
    24   13   31 1
    25   14   15 1
    26   14   32 1
    27   14   33 1
    28   15   16 1
    29   15   34 1
    30   15   35 1
    31   16   17 1
    32   16   18 1
    33   18   19 1
    34   18   36 1
    35   18   37 1
    36   19   20 1
    37   19   21 1
    38   21   22 2
    39   21   23 1
@<TRIPOS>MOLECULE
ZINC40566093
   44    46     0     0     0
SMALL
USER_CHARGES

@<TRIPOS>ATOM
      1 C1         -0.2047    1.3669    0.0418 C.3       1 <0>         0.0529
      2 N1          0.0443   -0.0744   -0.0400 N.am      1 <0>        -0.6125
      3 C2          0.4133   -0.8235    1.1637 C.3       1 <0>         0.1595
      4 H1          0.5413   -1.8722    0.8956 H         1 <0>         0.1093
      5 C3          1.7446   -0.2856    1.6863 C.3       1 <0>        -0.1419
      6 C4          1.4997    0.8692    2.6974 C.3       1 <0>        -0.0518
      7 S1          0.0335    0.1897    3.5912 S.3       1 <0>        -0.3289
      8 C5         -0.7345   -0.7117    2.1861 C.3       1 <0>        -0.0649
      9 C6         -0.0659   -0.7113   -1.2227 C.2       1 <0>         0.7496
     10 O1         -0.1309   -1.9250   -1.2558 O.2       1 <0>        -0.6083
     11 N2         -0.1042   -0.0028   -2.3686 N.am      1 <0>        -0.5957
     12 C7         -0.3256   -0.5468   -3.7110 C.3       1 <0>         0.1690
     13 H2         -1.3973   -0.5504   -3.9099 H         1 <0>         0.0487
     14 C8          0.1989   -1.9556   -3.8716 C.3       1 <0>        -0.1281
     15 C9          1.7238   -1.9938   -3.7707 C.3       1 <0>        -0.1068
     16 C10         2.3043   -1.0963   -4.8689 C.3       1 <0>        -0.1107
     17 C11         1.8577    0.3410   -4.6126 C.3       1 <0>        -0.1342
     18 C12         0.3470    0.4453   -4.6775 C.3       1 <0>        -0.0947
     19 H3         -0.0296    0.3580   -5.6967 H         1 <0>         0.0850
     20 C13        -0.0191    1.7993   -3.9957 C.3       1 <0>        -0.1132
     21 C14         0.0629    1.4565   -2.4915 C.3       1 <0>         0.0402
     22 H4         -0.7318    1.9680   -1.9485 H         1 <0>         0.0750
     23 C15         1.4070    1.8665   -1.9470 C.2       1 <0>         0.5021
     24 O2          2.1877    1.0190   -1.5486 O.co2     1 <0>        -0.6682
     25 O3          1.7137    3.0458   -1.9049 O.co2     1 <0>        -0.6979
     26 H5          0.6904    1.9083   -0.2645 H         1 <0>         0.0950
     27 H6         -1.0321    1.6306   -0.6170 H         1 <0>         0.0642
     28 H7         -0.4578    1.6343    1.0677 H         1 <0>         0.0570
     29 H8          2.2888   -1.0895    2.1819 H         1 <0>         0.0778
     30 H9          2.3363    0.0867    0.8500 H         1 <0>         0.1113
     31 H10         2.3495    0.9972    3.3678 H         1 <0>         0.1044
     32 H11         1.2567    1.8004    2.1858 H         1 <0>         0.0935
     33 H12        -1.5648   -0.1401    1.7714 H         1 <0>         0.0947
     34 H13        -1.0666   -1.7009    2.5013 H         1 <0>         0.1018
     35 H14        -0.2265   -2.5862   -3.0909 H         1 <0>         0.0955
     36 H15        -0.1043   -2.3407   -4.8451 H         1 <0>         0.0524
     37 H16         2.0362   -1.6264   -2.7932 H         1 <0>         0.0745
     38 H17         2.0752   -3.0163   -3.9084 H         1 <0>         0.0474
     39 H18         3.3927   -1.1504   -4.8481 H         1 <0>         0.0521
     40 H19         1.9380   -1.4251   -5.8415 H         1 <0>         0.0479
     41 H20         2.1983    0.6521   -3.6250 H         1 <0>         0.1068
     42 H21         2.2989    0.9938   -5.3658 H         1 <0>         0.0482
     43 H22         0.7033    2.5722   -4.2583 H         1 <0>         0.0827
     44 H23        -1.0300    2.1064   -4.2639 H         1 <0>         0.0592
@<TRIPOS>BOND
     1    1    2 1
     2    1   26 1
     3    1   27 1
     4    1   28 1
     5    2    3 1
     6    2    9 am
     7    3    4 1
     8    3    8 1
     9    3    5 1
    10    5    6 1
    11    5   29 1
    12    5   30 1
    13    6    7 1
    14    6   31 1
    15    6   32 1
    16    7    8 1
    17    8   33 1
    18    8   34 1
    19    9   10 2
    20    9   11 am
    21   11   21 1
    22   11   12 1
    23   12   13 1
    24   12   18 1
    25   12   14 1
    26   14   15 1
    27   14   35 1
    28   14   36 1
    29   15   16 1
    30   15   37 1
    31   15   38 1
    32   16   17 1
    33   16   39 1
    34   16   40 1
    35   17   18 1
    36   17   41 1
    37   17   42 1
    38   18   19 1
    39   18   20 1
    40   20   21 1
    41   20   43 1
    42   20   44 1
    43   21   22 1
    44   21   23 1
    45   23   24 2
    46   23   25 1
@<TRIPOS>MOLECULE
ZINC44591655
   31    33     0     0     0
SMALL
USER_CHARGES

@<TRIPOS>ATOM
      1 C1         -0.7467    2.0242   -0.5687 C.3       1 <0>        -0.0870
      2 C2         -0.3671    2.2422   -2.0107 C.2       1 <0>         0.1283
      3 C3         -0.0502    1.1914   -2.8429 C.2       1 <0>        -0.2778
      4 S1          0.2952    2.0689   -4.3595 S.3       1 <0>         0.2278
      5 C4          0.0097    3.6283   -3.7944 C.2       1 <0>        -0.0136
      6 N1         -0.3269    3.4404   -2.5385 N.2       1 <0>        -0.5264
      7 C5         -0.0077   -0.2476   -2.5617 C.2       1 <0>         0.6086
      8 O1          0.1129   -0.6404   -1.4163 O.2       1 <0>        -0.5387
      9 N2         -0.1024   -1.1347   -3.5719 N.am      1 <0>        -0.5709
     10 C6         -0.1983   -2.5753   -3.2925 C.3       1 <0>         0.1171
     11 C7         -1.5723   -3.0691   -3.7713 C.3       1 <0>        -0.0518
     12 C8         -1.8613   -2.4614   -5.1053 C.2       1 <0>        -0.1398
     13 C9         -1.2507   -1.3942   -5.6881 C.2       1 <0>        -0.1046
     14 C10        -1.7167   -1.0169   -6.9464 C.2       1 <0>        -0.1273
     15 C11        -2.7243   -1.7059   -7.5293 C.2       1 <0>        -0.1835
     16 S2         -3.0757   -2.9540   -6.3004 S.3       1 <0>         0.0102
     17 C12        -0.1171   -0.6757   -4.9674 C.3       1 <0>         0.1230
     18 H1         -0.2840    0.4010   -5.0001 H         1 <0>         0.0916
     19 C13         1.1952   -1.0100   -5.6286 C.2       1 <0>         0.5018
     20 O2          1.8272   -1.9886   -5.2687 O.co2     1 <0>        -0.6682
     21 O3          1.6248   -0.3020   -6.5233 O.co2     1 <0>        -0.6732
     22 H2         -1.8252    1.8849   -0.4939 H         1 <0>         0.0728
     23 H3         -0.2387    1.1375   -0.1893 H         1 <0>         0.0966
     24 H4         -0.4508    2.8923    0.0202 H         1 <0>         0.0716
     25 H5          0.0816    4.5601   -4.3358 H         1 <0>         0.2153
     26 H6          0.5896   -3.1064   -3.8266 H         1 <0>         0.1078
     27 H7         -0.0983   -2.7492   -2.2211 H         1 <0>         0.0975
     28 H8         -1.5600   -4.1555   -3.8593 H         1 <0>         0.0908
     29 H9         -2.3387   -2.7664   -3.0578 H         1 <0>         0.0813
     30 H10        -1.2735   -0.1740   -7.4559 H         1 <0>         0.1362
     31 H11        -3.1945   -1.5434   -8.4879 H         1 <0>         0.1846
@<TRIPOS>BOND
     1    1    2 1
     2    1   22 1
     3    1   23 1
     4    1   24 1
     5    2    6 1
     6    2    3 2
     7    3    4 1
     8    3    7 1
     9    4    5 1
    10    5    6 2
    11    5   25 1
    12    7    8 2
    13    7    9 am
    14    9   17 1
    15    9   10 1
    16   10   11 1
    17   10   26 1
    18   10   27 1
    19   11   12 1
    20   11   28 1
    21   11   29 1
    22   12   16 1
    23   12   13 2
    24   13   14 1
    25   13   17 1
    26   14   15 2
    27   14   30 1
    28   15   16 1
    29   15   31 1
    30   17   18 1
    31   17   19 1
    32   19   20 2
    33   19   21 1
@<TRIPOS>MOLECULE
ZINC61823675
   46    48     0     0     0
SMALL
USER_CHARGES

@<TRIPOS>ATOM
      1 C1          1.9397    2.8504    0.1087 C.3       1 <0>        -0.1173
      2 C2          3.4225    2.9303    0.4779 C.3       1 <0>        -0.1208
      3 C3          3.6861    2.0730    1.7173 C.3       1 <0>        -0.1069
      4 C4          3.3122    0.6191    1.4217 C.3       1 <0>        -0.0535
      5 C5          1.8301    0.5388    1.0508 C.3       1 <0>        -0.1133
      6 C6          1.5665    1.3966   -0.1883 C.3       1 <0>        -0.1210
      7 C7          4.1588    0.1018    0.2566 C.3       1 <0>        -0.1246
      8 C8          3.7606   -1.3437   -0.0573 C.3       1 <0>         0.0778
      9 N1          3.8721   -2.1425    1.1707 N.am      1 <0>        -0.6329
     10 C9          3.1685   -1.6849    2.3768 C.3       1 <0>         0.1324
     11 C10         3.5738   -0.2359    2.6639 C.3       1 <0>        -0.1218
     12 C11         4.6050   -3.2734    1.1905 C.2       1 <0>         0.7195
     13 O1          4.9792   -3.7369    2.2505 O.2       1 <0>        -0.5850
     14 N2          4.9233   -3.8904    0.0353 N.am      1 <0>        -0.5670
     15 C12         5.8312   -5.0402    0.0450 C.3       1 <0>         0.0614
     16 C13         5.0339   -6.3084    0.2097 C.2       1 <0>         0.4858
     17 O2          3.8199   -6.2566    0.3098 O.co2     1 <0>        -0.6812
     18 O3          5.6030   -7.3862    0.2429 O.co2     1 <0>        -0.7062
     19 C14         4.3614   -3.4114   -1.2300 C.3       1 <0>         0.0850
     20 C15         4.6501   -4.2338   -2.4875 C.3       1 <0>        -0.1772
     21 C16         5.3387   -2.8830   -2.2819 C.3       1 <0>        -0.2128
     22 H1          1.3379    3.2175    0.9401 H         1 <0>         0.0582
     23 H2          1.7516    3.4616   -0.7739 H         1 <0>         0.0568
     24 H3          4.0241    2.5623   -0.3531 H         1 <0>         0.0644
     25 H4          3.6891    3.9659    0.6890 H         1 <0>         0.0566
     26 H5          4.7423    2.1301    1.9805 H         1 <0>         0.0594
     27 H6          3.0844    2.4411    2.5483 H         1 <0>         0.0598
     28 H7          1.5643   -0.4968    0.8388 H         1 <0>         0.0686
     29 H8          1.2274    0.9057    1.8815 H         1 <0>         0.0598
     30 H9          0.5104    1.3392   -0.4520 H         1 <0>         0.0581
     31 H10         2.1689    1.0294   -1.0193 H         1 <0>         0.0649
     32 H11         3.9885    0.7248   -0.6214 H         1 <0>         0.0748
     33 H12         5.2135    0.1375    0.5294 H         1 <0>         0.0629
     34 H13         2.7323   -1.3694   -0.4178 H         1 <0>         0.0601
     35 H14         4.4271   -1.7491   -0.8186 H         1 <0>         0.1179
     36 H15         2.0920   -1.7379    2.2141 H         1 <0>         0.0596
     37 H16         3.4439   -2.3157    3.2220 H         1 <0>         0.0885
     38 H17         4.6338   -0.1976    2.9152 H         1 <0>         0.0660
     39 H18         2.9875    0.1471    3.4992 H         1 <0>         0.0689
     40 H19         6.3815   -5.0765   -0.8952 H         1 <0>         0.0700
     41 H20         6.5330   -4.9420    0.8732 H         1 <0>         0.0786
     42 H21         3.3881   -2.9258   -1.1582 H         1 <0>         0.1304
     43 H22         5.2581   -5.1312   -2.3733 H         1 <0>         0.1030
     44 H23         3.8667   -4.2895   -3.2433 H         1 <0>         0.0991
     45 H24         5.0083   -2.0501   -2.9025 H         1 <0>         0.0987
     46 H25         6.3997   -2.8918   -2.0325 H         1 <0>         0.0946
@<TRIPOS>BOND
     1    1    6 1
     2    1    2 1
     3    1   22 1
     4    1   23 1
     5    2    3 1
     6    2   24 1
     7    2   25 1
     8    3    4 1
     9    3   26 1
    10    3   27 1
    11    4   11 1
    12    4    5 1
    13    4    7 1
    14    5    6 1
    15    5   28 1
    16    5   29 1
    17    6   30 1
    18    6   31 1
    19    7    8 1
    20    7   32 1
    21    7   33 1
    22    8    9 1
    23    8   34 1
    24    8   35 1
    25    9   10 1
    26    9   12 am
    27   10   11 1
    28   10   36 1
    29   10   37 1
    30   11   38 1
    31   11   39 1
    32   12   13 2
    33   12   14 am
    34   14   15 1
    35   14   19 1
    36   15   16 1
    37   15   40 1
    38   15   41 1
    39   16   17 2
    40   16   18 1
    41   19   21 1
    42   19   20 1
    43   19   42 1
    44   20   21 1
    45   20   43 1
    46   20   44 1
    47   21   45 1
    48   21   46 1
@<TRIPOS>MOLECULE
ZINC63074886
   37    38     0     0     0
SMALL
USER_CHARGES

@<TRIPOS>ATOM
      1 C1         -0.0187    1.5258    0.0104 C.3       1 <0>        -0.1567
      2 C2          0.0021   -0.0041    0.0020 C.3       1 <0>         0.1583
      3 C3         -1.4416   -0.5487    0.0316 C.3       1 <0>        -0.1242
      4 C4         -1.3275   -1.7852    0.9619 C.3       1 <0>        -0.1383
      5 C5         -0.2755   -1.3034    1.9919 C.3       1 <0>         0.1014
      6 N1          0.6811   -0.5016    1.2074 N.am      1 <0>        -0.5940
      7 C6          1.9654   -0.2642    1.5400 C.2       1 <0>         0.5924
      8 O1          2.6655    0.4138    0.8144 O.2       1 <0>        -0.5384
      9 C7          2.5238   -0.8303    2.7908 C.ar      1 <0>         0.0509
     10 C8          3.8519   -0.5740    3.1283 C.ar      1 <0>        -0.1034
     11 C9          4.3663   -1.1049    4.2970 C.ar      1 <0>        -0.0861
     12 C10         3.5234   -1.8857    5.1007 C.ar      1 <0>        -0.0519
     13 C11         2.2000   -2.0975    4.6925 C.ar      1 <0>         0.0898
     14 N2          1.7506   -1.5700    3.5769 N.ar      1 <0>        -0.4503
     15 C12         4.0215   -2.4744    6.3543 C.2       1 <0>        -0.1279
     16 C13         3.2011   -3.2246    7.1207 C.2       1 <0>        -0.1414
     17 C14         3.6812   -3.7920    8.3288 C.2       1 <0>         0.4980
     18 O2          4.8398   -3.6014    8.6768 O.co2     1 <0>        -0.6899
     19 O3          2.9371   -4.4724    9.0239 O.co2     1 <0>        -0.6928
     20 C15         0.7261   -0.5075   -1.2482 C.3       1 <0>        -0.1563
     21 H1          1.0039    1.9031    0.0027 H         1 <0>         0.0702
     22 H2         -0.5459    1.8868   -0.8726 H         1 <0>         0.0630
     23 H3         -0.5289    1.8773    0.9072 H         1 <0>         0.0552
     24 H4         -2.1237    0.1895    0.4532 H         1 <0>         0.0765
     25 H5         -1.7622   -0.8457   -0.9670 H         1 <0>         0.0802
     26 H6         -2.2801   -1.9984    1.4469 H         1 <0>         0.0828
     27 H7         -0.9670   -2.6552    0.4130 H         1 <0>         0.0734
     28 H8         -0.7482   -0.6881    2.7574 H         1 <0>         0.0666
     29 H9          0.2280   -2.1563    2.4470 H         1 <0>         0.1093
     30 H10         4.4720    0.0320    2.4843 H         1 <0>         0.1446
     31 H11         5.3917   -0.9231    4.5833 H         1 <0>         0.1442
     32 H12         1.5417   -2.6974    5.3033 H         1 <0>         0.1669
     33 H13         5.0433   -2.3063    6.6611 H         1 <0>         0.1347
     34 H14         2.1793   -3.3927    6.8138 H         1 <0>         0.1036
     35 H15         1.7463   -0.1237   -1.2567 H         1 <0>         0.0719
     36 H16         0.7480   -1.5973   -1.2414 H         1 <0>         0.0553
     37 H17         0.1999   -0.1603   -2.1374 H         1 <0>         0.0623
@<TRIPOS>BOND
     1    1    2 1
     2    1   21 1
     3    1   22 1
     4    1   23 1
     5    2    6 1
     6    2    3 1
     7    2   20 1
     8    3    4 1
     9    3   24 1
    10    3   25 1
    11    4    5 1
    12    4   26 1
    13    4   27 1
    14    5    6 1
    15    5   28 1
    16    5   29 1
    17    6    7 am
    18    7    8 2
    19    7    9 1
    20    9   14 ar
    21    9   10 ar
    22   10   11 ar
    23   10   30 1
    24   11   12 ar
    25   11   31 1
    26   12   13 ar
    27   12   15 1
    28   13   14 ar
    29   13   32 1
    30   15   16 2
    31   15   33 1
    32   16   17 1
    33   16   34 1
    34   17   18 2
    35   17   19 1
    36   20   35 1
    37   20   36 1
    38   20   37 1
@<TRIPOS>MOLECULE
ZINC20371329
   44    46     0     0     0
SMALL
USER_CHARGES
(2S)-2-[(7S)-2-isopropyl-7-methyl-4-oxo-5,6,7,8-tetrahydrobenzothiopheno[2,3-d]pyrimidin-3-yl]propanoic acid
@<TRIPOS>ATOM
      1 C1          9.1588    2.4671   -4.6529 C.3       1 <0>        -0.1468
      2 C2          7.8986    2.9286   -3.9181 C.3       1 <0>        -0.0874
      3 H1          7.3370    3.6145   -4.5693 H         1 <0>         0.0753
      4 C3          7.0330    1.7141   -3.5701 C.3       1 <0>        -0.1156
      5 C4          5.6671    2.1775   -3.0624 C.3       1 <0>        -0.0635
      6 C5          5.8762    3.1831   -1.9335 C.2       1 <0>        -0.0322
      7 C6          7.0630    3.8067   -1.7772 C.2       1 <0>        -0.1902
      8 S1          6.8463    4.8605   -0.3685 S.3       1 <0>         0.1027
      9 C7          5.1584    4.4595    0.0062 C.2       1 <0>         0.1218
     10 C8          4.8207    3.5173   -0.9782 C.2       1 <0>        -0.2564
     11 C9          3.4823    3.0077   -0.9153 C.2       1 <0>         0.5604
     12 O1          3.0937    2.1851   -1.7264 O.2       1 <0>        -0.5000
     13 N1          2.6616    3.4532    0.0544 N.am      1 <0>        -0.4924
     14 C10         3.0755    4.3736    0.9628 C.2       1 <0>         0.4204
     15 N2          4.2908    4.8518    0.9350 N.2       1 <0>        -0.5089
     16 C11         2.1180    4.8469    2.0259 C.3       1 <0>        -0.0548
     17 C12         2.9075    5.3491    3.2364 C.3       1 <0>        -0.1317
     18 C13         1.2597    5.9846    1.4692 C.3       1 <0>        -0.1466
     19 C14         1.2919    2.9388    0.1274 C.3       1 <0>         0.0640
     20 H2          0.7856    3.4601    0.9532 H         1 <0>         0.1068
     21 C15         0.5797    3.1940   -1.2025 C.3       1 <0>        -0.1481
     22 C16         1.3256    1.4575    0.4029 C.2       1 <0>         0.4684
     23 O2          2.3851    0.8898    0.5257 O.co2     1 <0>        -0.6134
     24 O3          0.1786    0.7689    0.5119 O.co2     1 <0>        -0.7529
     25 C17         8.2931    3.6408   -2.6163 C.3       1 <0>        -0.0238
     26 H3          8.8738    1.9573   -5.5850 H         1 <0>         0.0572
     27 H4          9.7229    1.7727   -4.0128 H         1 <0>         0.0560
     28 H5          9.7857    3.3395   -4.8891 H         1 <0>         0.0549
     29 H6          6.8951    1.0929   -4.4674 H         1 <0>         0.0683
     30 H7          7.5296    1.1221   -2.7871 H         1 <0>         0.0653
     31 H8          5.1116    2.6514   -3.8851 H         1 <0>         0.0759
     32 H9          5.1013    1.3111   -2.6893 H         1 <0>         0.0913
     33 H10         1.4760    4.0041    2.3216 H         1 <0>         0.1070
     34 H11         2.2085    5.6946    4.0124 H         1 <0>         0.0638
     35 H12         3.5569    6.1826    2.9305 H         1 <0>         0.0738
     36 H13         3.5246    4.5312    3.6366 H         1 <0>         0.0599
     37 H14         0.5608    6.3301    2.2452 H         1 <0>         0.0765
     38 H15         0.6921    5.6236    0.5989 H         1 <0>         0.0622
     39 H16         1.9092    6.8180    1.1633 H         1 <0>         0.0665
     40 H17        -0.4488    2.8077   -1.1477 H         1 <0>         0.0822
     41 H18         1.1208    2.6826   -2.0122 H         1 <0>         0.0824
     42 H19         0.5551    4.2752   -1.4037 H         1 <0>         0.0433
     43 H20         9.0372    3.0353   -2.0781 H         1 <0>         0.0804
     44 H21         8.7232    4.6252   -2.8527 H         1 <0>         0.0777
@<TRIPOS>BOND
     1    1    2 1
     2    1   26 1
     3    1   27 1
     4    1   28 1
     5    2    3 1
     6    2   25 1
     7    2    4 1
     8    4    5 1
     9    4   29 1
    10    4   30 1
    11    5    6 1
    12    5   31 1
    13    5   32 1
    14    6   10 1
    15    6    7 2
    16    7    8 1
    17    7   25 1
    18    8    9 1
    19    9   15 1
    20    9   10 2
    21   10   11 1
    22   11   12 2
    23   11   13 am
    24   13   14 1
    25   13   19 1
    26   14   15 2
    27   14   16 1
    28   16   17 1
    29   16   18 1
    30   16   33 1
    31   17   34 1
    32   17   35 1
    33   17   36 1
    34   18   37 1
    35   18   38 1
    36   18   39 1
    37   19   20 1
    38   19   21 1
    39   19   22 1
    40   21   40 1
    41   21   41 1
    42   21   42 1
    43   22   23 2
    44   22   24 1
    45   25   43 1
    46   25   44 1
@<TRIPOS>MOLECULE
ZINC00631340
   44    45     0     0     0
SMALL
USER_CHARGES

@<TRIPOS>ATOM
      1 C1         -0.2568    1.8342    1.2485 C.3       1 <0>        -0.1118
      2 C2         -0.0898    0.4170    0.7642 C.ar      1 <0>        -0.1248
      3 C3         -0.1313    0.1396   -0.5894 C.ar      1 <0>        -0.0556
      4 C4          0.0219   -1.1604   -1.0335 C.ar      1 <0>        -0.1223
      5 C5          0.2170   -2.1831   -0.1241 C.ar      1 <0>         0.0423
      6 C6          0.2594   -1.9056    1.2294 C.ar      1 <0>        -0.6798
      7 C7          0.1105   -0.6050    1.6733 C.ar      1 <0>         0.0201
      8 C8          0.1619   -0.3018    3.1486 C.3       1 <0>        -0.1920
      9 S1          0.5074   -3.2092    2.3886 S.o2      1 <0>         2.6845
     10 O1          0.9706   -4.3294    1.6471 O.2       1 <0>        -0.8919
     11 O2          1.2426   -2.6556    3.4713 O.2       1 <0>        -0.9486
     12 N1         -0.9803   -3.6209    2.9882 N.pl3     1 <0>        -0.9371
     13 C9         -1.7123   -2.9584    4.0830 C.3       1 <0>         0.0629
     14 H1         -1.9286   -1.9209    3.8280 H         1 <0>         0.1136
     15 C10        -2.9933   -3.7619    4.1842 C.2       1 <0>         0.4728
     16 O3         -4.0083   -3.5579    5.0409 O.3       1 <0>        -0.5822
     17 N2         -2.9129   -4.6914    3.2720 N.2       1 <0>        -0.5983
     18 C11        -1.7741   -4.6268    2.5724 C.2       1 <0>         0.5392
     19 S2         -1.3711   -5.6996    1.3005 S.2       1 <0>        -0.5997
     20 C12        -0.9178   -3.0368    5.3881 C.3       1 <0>        -0.0978
     21 C13        -1.7005   -2.3423    6.5043 C.3       1 <0>        -0.1494
     22 C14        -0.6917   -4.5036    5.7602 C.3       1 <0>        -0.1490
     23 C15         0.3830   -3.6005   -0.6083 C.3       1 <0>        -0.1814
     24 C16        -0.0243   -1.4629   -2.5092 C.3       1 <0>        -0.1148
     25 H2          0.7188    2.3177    1.3007 H         1 <0>         0.0692
     26 H3         -0.8969    2.3816    0.5565 H         1 <0>         0.0654
     27 H4         -0.7130    1.8286    2.2384 H         1 <0>         0.0709
     28 H5         -0.2837    0.9386   -1.2998 H         1 <0>         0.1261
     29 H6         -0.8042   -0.5279    3.5999 H         1 <0>         0.0777
     30 H7          0.9339   -0.9114    3.6182 H         1 <0>         0.1313
     31 H8          0.3932    0.7533    3.2949 H         1 <0>         0.0819
     32 H9          0.0449   -2.5425    5.2577 H         1 <0>         0.1021
     33 H10        -2.6632   -2.8366    6.6348 H         1 <0>         0.0828
     34 H11        -1.1345   -2.3982    7.4341 H         1 <0>         0.0571
     35 H12        -1.8616   -1.2974    6.2393 H         1 <0>         0.0527
     36 H13        -1.6544   -4.9979    5.8907 H         1 <0>         0.0625
     37 H14        -0.1340   -4.9983    4.9650 H         1 <0>         0.0475
     38 H15        -0.1256   -4.5595    6.6900 H         1 <0>         0.0626
     39 H16         1.4429   -3.8536   -0.6348 H         1 <0>         0.0855
     40 H17        -0.1358   -4.2789    0.0690 H         1 <0>         0.1476
     41 H18        -0.0380   -3.6941   -1.6094 H         1 <0>         0.0670
     42 H19         0.9808   -1.3954   -2.9255 H         1 <0>         0.0697
     43 H20        -0.4139   -2.4694   -2.6617 H         1 <0>         0.0775
     44 H21        -0.6732   -0.7427   -3.0075 H         1 <0>         0.0638
@<TRIPOS>BOND
     1    1    2 1
     2    1   25 1
     3    1   26 1
     4    1   27 1
     5    2    7 ar
     6    2    3 ar
     7    3    4 ar
     8    3   28 1
     9    4    5 ar
    10    4   24 1
    11    5    6 ar
    12    5   23 1
    13    6    7 ar
    14    6    9 1
    15    7    8 1
    16    8   29 1
    17    8   30 1
    18    8   31 1
    19    9   10 2
    20    9   11 2
    21    9   12 1
    22   12   18 1
    23   12   13 1
    24   13   14 1
    25   13   15 1
    26   13   20 1
    27   15   16 1
    28   15   17 2
    29   17   18 1
    30   18   19 2
    31   20   21 1
    32   20   22 1
    33   20   32 1
    34   21   33 1
    35   21   34 1
    36   21   35 1
    37   22   36 1
    38   22   37 1
    39   22   38 1
    40   23   39 1
    41   23   40 1
    42   23   41 1
    43   24   42 1
    44   24   43 1
    45   24   44 1
@<TRIPOS>MOLECULE
ZINC41543746
   41    43     0     0     0
SMALL
USER_CHARGES

@<TRIPOS>ATOM
      1 C1         -0.1230    1.4572   -0.5054 C.3       1 <0>        -0.1128
      2 C2         -0.0480   -0.0253   -0.2449 C.ar      1 <0>        -0.0929
      3 C3         -0.0052   -0.9114   -1.3061 C.ar      1 <0>        -0.1077
      4 C4          0.0631   -2.2733   -1.0741 C.ar      1 <0>        -0.0949
      5 C5          0.0894   -2.7551    0.2190 C.ar      1 <0>        -0.0576
      6 C6          0.0470   -1.8670    1.2916 C.ar      1 <0>        -0.0061
      7 C7         -0.0166   -0.4960    1.0522 C.ar      1 <0>        -0.0578
      8 C8         -0.0571    0.4710    2.2074 C.3       1 <0>        -0.1186
      9 C9          0.0750   -2.3794    2.6844 C.2       1 <0>         0.1478
     10 C10        -0.8019   -2.0091    3.7031 C.2       1 <0>        -0.2655
     11 C11        -0.4384   -2.7126    4.8470 C.2       1 <0>         0.2687
     12 N1         -0.9362   -2.7338    6.0842 N.2       1 <0>        -0.4338
     13 C12        -0.4023   -3.5039    7.0151 C.2       1 <0>         0.1616
     14 C13         0.7108   -4.3191    6.7073 C.2       1 <0>        -0.1772
     15 C14         1.2190   -4.3005    5.4529 C.2       1 <0>         0.1551
     16 N2          0.6438   -3.4934    4.5124 N.pl3     1 <0>        -0.3072
     17 N3          0.9329   -3.2668    3.1616 N.2       1 <0>        -0.3153
     18 C15         2.4048   -5.1601    5.0977 C.3       1 <0>        -0.1054
     19 C16        -0.9693   -3.5129    8.3811 C.2       1 <0>         0.5346
     20 O1         -1.9317   -2.8077    8.6481 O.co2     1 <0>        -0.6450
     21 O2         -0.4756   -4.2254    9.2433 O.co2     1 <0>        -0.6683
     22 C17         0.1634   -4.2392    0.4703 C.3       1 <0>        -0.1123
     23 C18         0.1085   -3.2327   -2.2353 C.3       1 <0>        -0.1129
     24 H1          0.8853    1.8653   -0.5747 H         1 <0>         0.0680
     25 H2         -0.6522    1.6352   -1.4416 H         1 <0>         0.0643
     26 H3         -0.6563    1.9431    0.3116 H         1 <0>         0.0701
     27 H4         -0.0256   -0.5386   -2.3195 H         1 <0>         0.1209
     28 H5         -1.0864    0.5897    2.5459 H         1 <0>         0.0762
     29 H6          0.5521    0.0859    3.0251 H         1 <0>         0.0701
     30 H7          0.3336    1.4367    1.8867 H         1 <0>         0.0666
     31 H8         -1.6158   -1.3041    3.6194 H         1 <0>         0.1564
     32 H9          1.1513   -4.9499    7.4652 H         1 <0>         0.1716
     33 H10         2.7177   -5.7275    5.9742 H         1 <0>         0.0909
     34 H11         2.1284   -5.8483    4.2989 H         1 <0>         0.0814
     35 H12         3.2259   -4.5261    4.7632 H         1 <0>         0.0814
     36 H13         1.2034   -4.5632    0.4295 H         1 <0>         0.0724
     37 H14        -0.2482   -4.4620    1.4546 H         1 <0>         0.0675
     38 H15        -0.4113   -4.7658   -0.2916 H         1 <0>         0.0650
     39 H16         1.1458   -3.4129   -2.5175 H         1 <0>         0.0682
     40 H17        -0.3584   -4.1745   -1.9470 H         1 <0>         0.0692
     41 H18        -0.4291   -2.8047   -3.0814 H         1 <0>         0.0635
@<TRIPOS>BOND
     1    1    2 1
     2    1   24 1
     3    1   25 1
     4    1   26 1
     5    2    7 ar
     6    2    3 ar
     7    3    4 ar
     8    3   27 1
     9    4    5 ar
    10    4   23 1
    11    5    6 ar
    12    5   22 1
    13    6    7 ar
    14    6    9 1
    15    7    8 1
    16    8   28 1
    17    8   29 1
    18    8   30 1
    19    9   17 2
    20    9   10 1
    21   10   11 2
    22   10   31 1
    23   11   16 1
    24   11   12 1
    25   12   13 2
    26   13   14 1
    27   13   19 1
    28   14   15 2
    29   14   32 1
    30   15   16 1
    31   15   18 1
    32   16   17 1
    33   18   33 1
    34   18   34 1
    35   18   35 1
    36   19   20 2
    37   19   21 1
    38   22   36 1
    39   22   37 1
    40   22   38 1
    41   23   39 1
    42   23   40 1
    43   23   41 1
@<TRIPOS>MOLECULE
ZINC40380250
   36    39     0     0     0
SMALL
USER_CHARGES

@<TRIPOS>ATOM
      1 C1         -0.0184    1.5028    0.0103 C.3       1 <0>        -0.1011
      2 C2          0.0021   -0.0041    0.0020 C.ar      1 <0>         0.1772
      3 C3          0.0054   -0.6717   -1.2070 C.ar      1 <0>        -0.1921
      4 C4          0.0248   -2.0653   -1.2056 C.ar      1 <0>        -0.0315
      5 C5          0.0404   -2.7396    0.0410 C.ar      1 <0>        -0.2817
      6 C6          0.0356   -1.9804    1.2175 C.ar      1 <0>         0.3781
      7 S1          0.0551   -2.7843    2.7853 S.3       1 <0>        -0.7925
      8 N1          0.0218   -0.6551    1.1513 N.ar      1 <0>        -0.4936
      9 C7          0.0587   -4.1664   -0.2722 C.2       1 <0>         0.5262
     10 O1          0.0749   -5.0705    0.5420 O.2       1 <0>        -0.4022
     11 O2          0.0542   -4.3160   -1.6094 O.3       1 <0>        -0.2628
     12 C8          0.0344   -3.1110   -2.2301 C.2       1 <0>         0.1489
     13 C9          0.0254   -2.9086   -3.5725 C.2       1 <0>        -0.1156
     14 C10         0.0367   -4.0507   -4.4837 C.2       1 <0>         0.0972
     15 C11         0.0348   -3.9700   -5.8445 C.2       1 <0>        -0.2096
     16 C12         0.0495   -5.3485   -6.3314 C.ar      1 <0>        -0.0864
     17 C13         0.0550   -5.9318   -7.6023 C.ar      1 <0>        -0.1146
     18 C14         0.0698   -7.2926   -7.7250 C.ar      1 <0>        -0.0955
     19 C15         0.0796   -8.1009   -6.5971 C.ar      1 <0>        -0.2011
     20 C16         0.0740   -7.5449   -5.3304 C.ar      1 <0>         0.1499
     21 C17         0.0594   -6.1594   -5.1828 C.ar      1 <0>         0.0255
     22 O3          0.0567   -5.3457   -4.1066 O.3       1 <0>        -0.1634
     23 O4          0.0828   -8.3478   -4.2331 O.3       1 <0>        -0.3085
     24 C18         0.0977   -9.7584   -4.4614 C.3       1 <0>         0.0270
     25 H1          1.0042    1.8801    0.0026 H         1 <0>         0.0780
     26 H2         -0.5455    1.8639   -0.8728 H         1 <0>         0.0730
     27 H3         -0.5286    1.8543    0.9071 H         1 <0>         0.0775
     28 H4         -0.0071   -0.1234   -2.1374 H         1 <0>         0.1348
     29 H5          0.0098   -1.9033   -3.9669 H         1 <0>         0.1844
     30 H6          0.0239   -3.0702   -6.4418 H         1 <0>         0.1642
     31 H7          0.0471   -5.3085   -8.4843 H         1 <0>         0.1283
     32 H8          0.0736   -7.7423   -8.7069 H         1 <0>         0.1295
     33 H9          0.0913   -9.1750   -6.7093 H         1 <0>         0.1374
     34 H10        -0.7895  -10.0443   -5.0264 H         1 <0>         0.0563
     35 H11         0.9904  -10.0255   -5.0269 H         1 <0>         0.0563
     36 H12         0.1035  -10.2812   -3.5050 H         1 <0>         0.1024
@<TRIPOS>BOND
     1    1    2 1
     2    1   25 1
     3    1   26 1
     4    1   27 1
     5    2    8 ar
     6    2    3 ar
     7    3    4 ar
     8    3   28 1
     9    4   12 1
    10    4    5 ar
    11    5    6 ar
    12    5    9 1
    13    6    7 1
    14    6    8 ar
    15    9   10 2
    16    9   11 1
    17   11   12 1
    18   12   13 2
    19   13   14 1
    20   13   29 1
    21   14   22 1
    22   14   15 2
    23   15   16 1
    24   15   30 1
    25   16   21 ar
    26   16   17 ar
    27   17   18 ar
    28   17   31 1
    29   18   19 ar
    30   18   32 1
    31   19   20 ar
    32   19   33 1
    33   20   21 ar
    34   20   23 1
    35   21   22 1
    36   23   24 1
    37   24   34 1
    38   24   35 1
    39   24   36 1
@<TRIPOS>MOLECULE
ZINC62913757
   30    31     0     0     0
SMALL
USER_CHARGES

@<TRIPOS>ATOM
      1 C1         -0.0187    1.5258    0.0104 C.3       1 <0>        -0.1151
      2 C2          0.0021   -0.0041    0.0020 C.3       1 <0>        -0.1428
      3 C3         -1.4347   -0.5733    0.1398 C.3       1 <0>        -0.1080
      4 C4         -1.6453   -0.5183    1.6735 C.3       1 <0>         0.0975
      5 N1         -0.3318   -0.8626    2.2474 N.am      1 <0>        -0.5844
      6 C5          0.7113   -0.5474    1.2603 C.3       1 <0>         0.1359
      7 C6         -0.1218   -1.3800    3.4741 C.2       1 <0>         0.5676
      8 O1          1.0093   -1.6256    3.8445 O.2       1 <0>        -0.5143
      9 C7         -1.2689   -1.6490    4.3702 C.ar      1 <0>         0.1211
     10 C8         -1.0444   -2.1789    5.6403 C.ar      1 <0>        -0.0306
     11 C9         -2.1307   -2.4252    6.4691 C.ar      1 <0>         0.0027
     12 C10        -3.4028   -2.1321    5.9966 C.ar      1 <0>        -0.0639
     13 C11        -3.5496   -1.6064    4.7215 C.ar      1 <0>         0.1273
     14 N2         -2.5024   -1.3785    3.9597 N.ar      1 <0>        -0.4160
     15 Cl1        -4.7958   -2.4212    6.9915 Cl        1 <0>        -0.0182
     16 Cl2        -1.9037   -3.0848    8.0588 Cl        1 <0>        -0.0049
     17 Cl3         0.5696   -2.5262    6.1771 Cl        1 <0>         0.0205
     18 C12         0.6662   -0.5195   -1.2487 C.2       1 <0>         0.5094
     19 O2          1.8198   -0.2129   -1.4971 O.co2     1 <0>        -0.6916
     20 O3          0.0499   -1.2431   -2.0123 O.co2     1 <0>        -0.6897
     21 H1          1.0039    1.9031    0.0027 H         1 <0>         0.0584
     22 H2         -0.5459    1.8868   -0.8726 H         1 <0>         0.0512
     23 H3         -0.5289    1.8773    0.9072 H         1 <0>         0.0405
     24 H4         -2.1567    0.0592   -0.3767 H         1 <0>         0.0752
     25 H5         -1.4851   -1.5993   -0.2249 H         1 <0>         0.0828
     26 H6         -1.9420    0.4849    1.9799 H         1 <0>         0.0647
     27 H7         -2.3959   -1.2469    1.9797 H         1 <0>         0.0964
     28 H8          1.2700   -1.4494    1.0106 H         1 <0>         0.0705
     29 H9          1.3852    0.2093    1.6619 H         1 <0>         0.0687
     30 H10        -4.5377   -1.3775    4.3506 H         1 <0>         0.1889
@<TRIPOS>BOND
     1    1    2 1
     2    1   21 1
     3    1   22 1
     4    1   23 1
     5    2    6 1
     6    2    3 1
     7    2   18 1
     8    3    4 1
     9    3   24 1
    10    3   25 1
    11    4    5 1
    12    4   26 1
    13    4   27 1
    14    5    6 1
    15    5    7 am
    16    6   28 1
    17    6   29 1
    18    7    8 2
    19    7    9 1
    20    9   14 ar
    21    9   10 ar
    22   10   11 ar
    23   10   17 1
    24   11   12 ar
    25   11   16 1
    26   12   13 ar
    27   12   15 1
    28   13   14 ar
    29   13   30 1
    30   18   19 2
    31   18   20 1
@<TRIPOS>MOLECULE
ZINC05575947
   33    35     0     0     0
SMALL
USER_CHARGES
5-ethyl-3-phenyl-2-(trifluoromethyl)-4H-pyrazolo[5,1-b]pyrimidin-7-one
@<TRIPOS>ATOM
      1 C1          1.2675    4.1039    1.4497 C.3       1 <0>        -0.1412
      2 C2          1.1327    3.6008    0.0110 C.3       1 <0>        -0.0668
      3 C3          1.1473    2.0939    0.0023 C.2       1 <0>         0.2159
      4 C4         -0.0170    1.4052    0.0098 C.2       1 <0>        -0.4077
      5 C5          0.0021   -0.0041    0.0020 C.2       1 <0>         0.5496
      6 O1         -1.0436   -0.6291    0.0082 O.3       1 <0>        -0.5697
      7 N1          1.1806   -0.6584   -0.0127 N.pl3     1 <0>        -0.3609
      8 C6          2.3492    0.0451   -0.0201 C.2       1 <0>         0.3520
      9 N2          2.3333    1.4232   -0.0134 N.2       1 <0>        -0.5872
     10 C7          3.3812   -0.8779   -0.0345 C.2       1 <0>        -0.2572
     11 C8          2.7972   -2.1577   -0.0355 C.2       1 <0>         0.0292
     12 N3          1.4973   -2.0220   -0.0226 N.2       1 <0>        -0.2777
     13 C9          3.5452   -3.4659   -0.0492 C.3       1 <0>         0.5571
     14 F1          2.6316   -4.5254   -0.0466 F         1 <0>        -0.1711
     15 F2          4.3388   -3.5374   -1.1990 F         1 <0>        -0.1684
     16 F3          4.3594   -3.5495    1.0854 F         1 <0>        -0.1690
     17 C10         4.8325   -0.5738   -0.0461 C.ar      1 <0>         0.0373
     18 C11         5.4041    0.0681   -1.1436 C.ar      1 <0>        -0.0959
     19 C12         6.7545    0.3524   -1.1470 C.ar      1 <0>        -0.1235
     20 C13         7.5425   -0.0073   -0.0684 C.ar      1 <0>        -0.1355
     21 C14         6.9816   -0.6489    1.0213 C.ar      1 <0>        -0.1233
     22 C15         5.6315   -0.9340    1.0379 C.ar      1 <0>        -0.1126
     23 H1          1.2568    5.2038    1.4560 H         1 <0>         0.0544
     24 H2          2.2152    3.7439    1.8767 H         1 <0>         0.0596
     25 H3          0.4274    3.7256    2.0506 H         1 <0>         0.0536
     26 H4          0.1850    3.9608   -0.4160 H         1 <0>         0.0739
     27 H5          1.9728    3.9791   -0.5900 H         1 <0>         0.0771
     28 H6         -0.9588    1.9339    0.0171 H         1 <0>         0.1317
     29 H7          4.7906    0.3458   -1.9879 H         1 <0>         0.1164
     30 H8          7.1977    0.8531   -1.9951 H         1 <0>         0.1147
     31 H9          8.5996    0.2138   -0.0770 H         1 <0>         0.1126
     32 H10         7.6017   -0.9274    1.8606 H         1 <0>         0.1147
     33 H11         5.1947   -1.4349    1.8892 H         1 <0>         0.1177
@<TRIPOS>BOND
     1    1    2 1
     2    1   23 1
     3    1   24 1
     4    1   25 1
     5    2    3 1
     6    2   26 1
     7    2   27 1
     8    3    9 2
     9    3    4 1
    10    4    5 2
    11    4   28 1
    12    5    6 1
    13    5    7 1
    14    7   12 1
    15    7    8 1
    16    8    9 1
    17    8   10 2
    18   10   11 1
    19   10   17 1
    20   11   12 2
    21   11   13 1
    22   13   14 1
    23   13   15 1
    24   13   16 1
    25   17   22 ar
    26   17   18 ar
    27   18   19 ar
    28   18   29 1
    29   19   20 ar
    30   19   30 1
    31   20   21 ar
    32   20   31 1
    33   21   22 ar
    34   21   32 1
    35   22   33 1
@<TRIPOS>MOLECULE
ZINC36906539
   29    31     0     0     0
SMALL
USER_CHARGES

@<TRIPOS>ATOM
      1 C1         -0.0167    1.3777    0.0096 C.ar      1 <0>        -0.1356
      2 C2          1.1694    2.0887    0.0021 C.ar      1 <0>        -0.0742
      3 C3          2.3796    1.4212   -0.0134 C.ar      1 <0>        -0.1877
      4 C4          2.4068    0.0357   -0.0211 C.ar      1 <0>         0.1348
      5 C5          1.2127   -0.6809   -0.0131 C.ar      1 <0>         0.1346
      6 C6          0.0021   -0.0041    0.0020 C.ar      1 <0>        -0.0605
      7 N1          1.2341   -2.0839   -0.0212 N.pl3     1 <0>        -0.4478
      8 C7          1.2524   -2.9241    1.0720 C.2       1 <0>         0.1897
      9 N2          1.2690   -4.1554    0.6098 N.2       1 <0>        -0.2543
     10 N3          1.2624   -4.1428   -0.6750 N.2       1 <0>        -0.3350
     11 C8          1.2353   -2.9058   -1.1164 C.2       1 <0>         0.3949
     12 S1          1.2098   -2.3987   -2.8036 S.3       1 <0>        -0.7797
     13 C9          1.2536   -2.5199    2.4868 C.2       1 <0>        -0.0383
     14 C10         1.0004   -3.2773    3.6028 C.2       1 <0>        -0.1458
     15 C11         1.0612   -2.6734    4.8386 C.2       1 <0>        -0.1441
     16 C12         1.3684   -1.3527    4.9161 C.2       1 <0>        -0.1964
     17 S2          1.5926   -0.9182    3.1991 S.3       1 <0>         0.0614
     18 O1          3.5964   -0.6224   -0.0368 O.3       1 <0>        -0.3048
     19 C13         4.7804    0.1776   -0.0448 C.3       1 <0>         0.4103
     20 F1          4.7858    0.9912   -1.1829 F         1 <0>        -0.1955
     21 F2          4.8093    0.9791    1.1016 F         1 <0>        -0.2000
     22 H1         -0.9599    1.9035    0.0259 H         1 <0>         0.1335
     23 H2          1.1499    3.1685    0.0081 H         1 <0>         0.1321
     24 H3          3.3041    1.9794   -0.0200 H         1 <0>         0.1377
     25 H4         -0.9257   -0.5568    0.0082 H         1 <0>         0.1333
     26 H5          0.7580   -4.3259    3.5134 H         1 <0>         0.1412
     27 H6          0.8666   -3.2429    5.7353 H         1 <0>         0.1337
     28 H7          1.4580   -0.7270    5.7918 H         1 <0>         0.1834
     29 H8          5.6567   -0.4704   -0.0572 H         1 <0>         0.1792
@<TRIPOS>BOND
     1    1    6 ar
     2    1    2 ar
     3    1   22 1
     4    2    3 ar
     5    2   23 1
     6    3    4 ar
     7    3   24 1
     8    4    5 ar
     9    4   18 1
    10    5    6 ar
    11    5    7 1
    12    6   25 1
    13    7   11 1
    14    7    8 1
    15    8   13 1
    16    8    9 2
    17    9   10 1
    18   10   11 2
    19   11   12 1
    20   13   17 1
    21   13   14 2
    22   14   15 1
    23   14   26 1
    24   15   16 2
    25   15   27 1
    26   16   17 1
    27   16   28 1
    28   18   19 1
    29   19   20 1
    30   19   21 1
    31   19   29 1
@<TRIPOS>MOLECULE
ZINC41912645
   45    46     0     0     0
SMALL
USER_CHARGES

@<TRIPOS>ATOM
      1 C1         -0.0665    1.6163   -1.9040 C.3       1 <0>        -0.1534
      2 C2         -0.0628    0.1411   -1.4980 C.3       1 <0>        -0.1155
      3 C3          0.7693   -0.6616   -2.5000 C.3       1 <0>        -0.0569
      4 C4          0.1624   -0.5187   -3.8972 C.3       1 <0>        -0.1422
      5 C5          2.2047   -0.1320   -2.5109 C.3       1 <0>        -0.1439
      6 C6          0.7730   -2.1367   -2.0940 C.3       1 <0>        -0.0785
      7 C7          1.3800   -2.2796   -0.6968 C.3       1 <0>        -0.1167
      8 C8          1.3837   -3.7548   -0.2908 C.3       1 <0>        -0.1016
      9 C9          2.2158   -4.5574   -1.2929 C.3       1 <0>         0.0879
     10 C10         1.6089   -4.4145   -2.6901 C.3       1 <0>        -0.1371
     11 C11         1.6052   -2.9394   -3.0961 C.3       1 <0>        -0.1126
     12 C12         2.2195   -6.0104   -0.8930 C.2       1 <0>         0.4962
     13 O1          1.1694   -6.6259   -0.8223 O.co2     1 <0>        -0.6815
     14 O2          3.2725   -6.5704   -0.6401 O.co2     1 <0>        -0.6778
     15 N1          3.5902   -4.0503   -1.3033 N.am      1 <0>        -0.4930
     16 C13         4.4618   -4.4339   -2.2799 C.2       1 <0>         0.1526
     17 C14         5.6985   -3.9314   -2.2257 C.2       1 <0>        -0.2658
     18 S1          5.6131   -2.9053   -0.7699 S.3       1 <0>        -0.0437
     19 C15         4.0106   -3.1928   -0.3500 C.2       1 <0>         0.4802
     20 O3          3.3814   -2.7380    0.5888 O.2       1 <0>        -0.4697
     21 C16         4.0474   -5.3845   -3.3733 C.3       1 <0>        -0.1056
     22 H1          0.9561    1.9935   -1.9117 H         1 <0>         0.0552
     23 H2         -0.4989    1.7181   -2.8993 H         1 <0>         0.0535
     24 H3         -0.6594    2.1881   -1.1901 H         1 <0>         0.0474
     25 H4          0.3695    0.0393   -0.5026 H         1 <0>         0.0656
     26 H5         -1.0854   -0.2362   -1.4902 H         1 <0>         0.0580
     27 H6          0.1598    0.5323   -4.1864 H         1 <0>         0.0524
     28 H7          0.7553   -1.0905   -4.6111 H         1 <0>         0.0554
     29 H8         -0.8602   -0.8959   -3.8895 H         1 <0>         0.0511
     30 H9          2.6371   -0.2338   -1.5155 H         1 <0>         0.0567
     31 H10         2.7976   -0.7038   -3.2248 H         1 <0>         0.0537
     32 H11         2.2021    0.9189   -2.8001 H         1 <0>         0.0512
     33 H12        -0.2495   -2.5140   -2.0863 H         1 <0>         0.0648
     34 H13         2.4026   -1.9023   -0.7046 H         1 <0>         0.0795
     35 H14         0.7871   -1.7078    0.0171 H         1 <0>         0.0565
     36 H15         1.8160   -3.8566    0.7045 H         1 <0>         0.0808
     37 H16         0.3611   -4.1320   -0.2831 H         1 <0>         0.0697
     38 H17         2.2018   -4.9863   -3.4040 H         1 <0>         0.0862
     39 H18         0.5863   -4.7918   -2.6823 H         1 <0>         0.0796
     40 H19         1.1728   -2.8376   -4.0915 H         1 <0>         0.0600
     41 H20         2.6278   -2.5621   -3.1038 H         1 <0>         0.0585
     42 H21         6.5325   -4.1023   -2.8902 H         1 <0>         0.1897
     43 H22         3.6493   -4.8183   -4.2154 H         1 <0>         0.0782
     44 H23         4.9123   -5.9617   -3.7000 H         1 <0>         0.0786
     45 H24         3.2808   -6.0609   -2.9955 H         1 <0>         0.0958
@<TRIPOS>BOND
     1    1    2 1
     2    1   22 1
     3    1   23 1
     4    1   24 1
     5    2    3 1
     6    2   25 1
     7    2   26 1
     8    3    4 1
     9    3    5 1
    10    3    6 1
    11    4   27 1
    12    4   28 1
    13    4   29 1
    14    5   30 1
    15    5   31 1
    16    5   32 1
    17    6   11 1
    18    6    7 1
    19    6   33 1
    20    7    8 1
    21    7   34 1
    22    7   35 1
    23    8    9 1
    24    8   36 1
    25    8   37 1
    26    9   10 1
    27    9   12 1
    28    9   15 1
    29   10   11 1
    30   10   38 1
    31   10   39 1
    32   11   40 1
    33   11   41 1
    34   12   13 2
    35   12   14 1
    36   15   19 am
    37   15   16 1
    38   16   17 2
    39   16   21 1
    40   17   18 1
    41   17   42 1
    42   18   19 1
    43   19   20 2
    44   21   43 1
    45   21   44 1
    46   21   45 1
@<TRIPOS>MOLECULE
ZINC50044267
   36    36     0     0     0
SMALL
USER_CHARGES

@<TRIPOS>ATOM
      1 C1          0.5418    1.2659   -0.0215 C.3       1 <0>        -0.1661
      2 C2          0.0907   -0.1754   -0.2666 C.3       1 <0>         0.2013
      3 H1         -0.9937   -0.2036   -0.3733 H         1 <0>         0.0578
      4 C3          0.5095   -1.0492    0.9175 C.3       1 <0>        -0.0851
      5 C4         -0.2523   -0.6105    2.1697 C.3       1 <0>        -0.1376
      6 C5          0.1865   -2.5129    0.6106 C.3       1 <0>        -0.1269
      7 C6          2.0132   -0.8980    1.1562 C.3       1 <0>        -0.1505
      8 N1          0.7153   -0.6809   -1.4916 N.pl3     1 <0>        -0.6254
      9 C7          2.1688   -0.6041   -1.6582 C.3       1 <0>         0.1438
     10 C8         -0.0664   -1.2302   -2.4896 C.ar      1 <0>         0.4153
     11 C9         -0.4817   -0.4328   -3.5720 C.ar      1 <0>        -0.1792
     12 C10        -1.2741   -1.0129   -4.5718 C.ar      1 <0>        -0.0172
     13 C11        -1.6134   -2.3486   -4.4486 C.ar      1 <0>        -0.1661
     14 C12        -1.1659   -3.0679   -3.3532 C.ar      1 <0>         0.1300
     15 N2         -0.4165   -2.5055   -2.4254 N.ar      1 <0>        -0.4985
     16 Br1        -2.6808   -3.1856   -5.7662 Br        1 <0>        -0.0618
     17 C13        -0.0920    0.9827   -3.6524 C.2       1 <0>         0.5250
     18 O1         -0.5463    1.6929   -4.5393 O.co2     1 <0>        -0.6908
     19 O2          0.6865    1.4505   -2.8325 O.co2     1 <0>        -0.6498
     20 H2          1.6249    1.2923    0.0981 H         1 <0>         0.0547
     21 H3          0.2548    1.8858   -0.8709 H         1 <0>         0.0931
     22 H4          0.0670    1.6464    0.8829 H         1 <0>         0.0408
     23 H5         -1.3236   -0.7182    1.9996 H         1 <0>         0.0488
     24 H6          0.0461   -1.2330    3.0133 H         1 <0>         0.0485
     25 H7         -0.0222    0.4323    2.3883 H         1 <0>         0.0553
     26 H8          0.7293   -2.8254   -0.2815 H         1 <0>         0.0738
     27 H9          0.4849   -3.1354    1.4542 H         1 <0>         0.0349
     28 H10        -0.8847   -2.6206    0.4405 H         1 <0>         0.0432
     29 H11         2.2656    0.1602    1.2247 H         1 <0>         0.0577
     30 H12         2.2855   -1.3974    2.0860 H         1 <0>         0.0406
     31 H13         2.5598   -1.3490    0.3280 H         1 <0>         0.0670
     32 H14         2.6209   -1.5442   -1.3420 H         1 <0>         0.0187
     33 H15         2.4051   -0.4218   -2.7066 H         1 <0>         0.0446
     34 H16         2.5616    0.2107   -1.0502 H         1 <0>         0.0646
     35 H17        -1.6118   -0.4318   -5.4172 H         1 <0>         0.1434
     36 H18        -1.4323   -4.1103   -3.2591 H         1 <0>         0.1520
@<TRIPOS>BOND
     1    1    2 1
     2    1   20 1
     3    1   21 1
     4    1   22 1
     5    2    3 1
     6    2    4 1
     7    2    8 1
     8    4    5 1
     9    4    6 1
    10    4    7 1
    11    5   23 1
    12    5   24 1
    13    5   25 1
    14    6   26 1
    15    6   27 1
    16    6   28 1
    17    7   29 1
    18    7   30 1
    19    7   31 1
    20    8    9 1
    21    8   10 1
    22    9   32 1
    23    9   33 1
    24    9   34 1
    25   10   15 ar
    26   10   11 ar
    27   11   12 ar
    28   11   17 1
    29   12   13 ar
    30   12   35 1
    31   13   14 ar
    32   13   16 1
    33   14   15 ar
    34   14   36 1
    35   17   18 2
    36   17   19 1
@<TRIPOS>MOLECULE
ZINC61823669
   44    46     0     0     0
SMALL
USER_CHARGES

@<TRIPOS>ATOM
      1 C1         -0.0187    1.5258    0.0104 C.3       1 <0>        -0.1297
      2 C2          0.0021   -0.0041    0.0020 C.3       1 <0>        -0.0429
      3 C3          0.7309   -0.5033    1.2229 C.2       1 <0>         0.1203
      4 C4          2.1047   -0.7243    1.2184 C.2       1 <0>        -0.2482
      5 S1          2.3521   -1.2879    2.8948 S.3       1 <0>         0.0850
      6 C5          0.7536   -1.1906    3.4122 C.2       1 <0>         0.2813
      7 N1          0.1082   -0.7473    2.3460 N.2       1 <0>        -0.5872
      8 N2          0.2401   -1.4950    4.6530 N.pl3     1 <0>        -0.5698
      9 C6         -1.1971   -1.3540    4.9239 C.3       1 <0>         0.1316
     10 C7         -1.3811   -0.4730    6.1636 C.3       1 <0>        -0.1260
     11 C8         -0.5773   -1.0598    7.3261 C.3       1 <0>        -0.0535
     12 C9         -0.7846   -0.1995    8.5743 C.3       1 <0>        -0.1070
     13 C10        -2.2701   -0.1803    8.9397 C.3       1 <0>        -0.1216
     14 C11        -2.7449   -1.6076    9.2197 C.3       1 <0>        -0.1176
     15 C12        -2.5380   -2.4677    7.9714 C.3       1 <0>        -0.1215
     16 C13        -1.0525   -2.4869    7.6055 C.3       1 <0>        -0.1132
     17 C14         0.9092   -1.0792    6.9625 C.3       1 <0>        -0.1247
     18 C15         1.1179   -1.9729    5.7301 C.3       1 <0>         0.1277
     19 C16         3.0432   -0.5513    0.1767 C.2       1 <0>         0.5607
     20 O1          2.6737   -0.1493   -0.9206 O.co2     1 <0>        -0.6705
     21 O2          4.2269   -0.8033    0.3702 O.co2     1 <0>        -0.6921
     22 H1          1.0039    1.9031    0.0027 H         1 <0>         0.0593
     23 H2         -0.5459    1.8868   -0.8726 H         1 <0>         0.0508
     24 H3         -0.5289    1.8773    0.9072 H         1 <0>         0.0404
     25 H4         -1.0205   -0.3814    0.0098 H         1 <0>         0.0570
     26 H5          0.5123   -0.3556   -0.8948 H         1 <0>         0.1028
     27 H6         -1.6861   -0.8879    4.0685 H         1 <0>         0.0906
     28 H7         -1.6327   -2.3364    5.1059 H         1 <0>         0.0612
     29 H8         -1.0271    0.5354    5.9490 H         1 <0>         0.0655
     30 H9         -2.4369   -0.4388    6.4320 H         1 <0>         0.0780
     31 H10        -0.2121   -0.6171    9.4025 H         1 <0>         0.0614
     32 H11        -0.4463    0.8173    8.3750 H         1 <0>         0.0609
     33 H12        -2.4177    0.4327    9.8289 H         1 <0>         0.0582
     34 H13        -2.8427    0.2371    8.1115 H         1 <0>         0.0647
     35 H14        -2.1721   -2.0252   10.0477 H         1 <0>         0.0590
     36 H15        -3.8032   -1.5940    9.4803 H         1 <0>         0.0577
     37 H16        -2.8763   -3.4846    8.1706 H         1 <0>         0.0588
     38 H17        -3.1107   -2.0500    7.1433 H         1 <0>         0.0650
     39 H18        -0.9053   -3.0996    6.7161 H         1 <0>         0.0673
     40 H19        -0.4798   -2.9050    8.4335 H         1 <0>         0.0615
     41 H20         1.2427   -0.0655    6.7407 H         1 <0>         0.0699
     42 H21         1.4833   -1.4765    7.7997 H         1 <0>         0.0757
     43 H22         0.8660   -3.0044    5.9761 H         1 <0>         0.0715
     44 H23         2.1573   -1.9155    5.4070 H         1 <0>         0.0817
@<TRIPOS>BOND
     1    1    2 1
     2    1   22 1
     3    1   23 1
     4    1   24 1
     5    2    3 1
     6    2   25 1
     7    2   26 1
     8    3    7 1
     9    3    4 2
    10    4    5 1
    11    4   19 1
    12    5    6 1
    13    6    7 2
    14    6    8 1
    15    8   18 1
    16    8    9 1
    17    9   10 1
    18    9   27 1
    19    9   28 1
    20   10   11 1
    21   10   29 1
    22   10   30 1
    23   11   16 1
    24   11   12 1
    25   11   17 1
    26   12   13 1
    27   12   31 1
    28   12   32 1
    29   13   14 1
    30   13   33 1
    31   13   34 1
    32   14   15 1
    33   14   35 1
    34   14   36 1
    35   15   16 1
    36   15   37 1
    37   15   38 1
    38   16   39 1
    39   16   40 1
    40   17   18 1
    41   17   41 1
    42   17   42 1
    43   18   43 1
    44   18   44 1
    45   19   20 2
    46   19   21 1
@<TRIPOS>MOLECULE
ZINC20249961
   29    30     0     0     0
SMALL
USER_CHARGES
1-(4-methylthiadiazole-5-carbonyl)piperidine-4-carboxylic acid
@<TRIPOS>ATOM
      1 C1         -0.6312   -0.2111    0.8249 C.3       1 <0>        -0.0797
      2 C2         -0.9789    1.0396    1.5903 C.2       1 <0>         0.0885
      3 C3         -2.0846    1.8303    1.2984 C.2       1 <0>        -0.2495
      4 S1         -1.9009    3.0944    2.5442 S.3       1 <0>         0.3779
      5 N1         -0.5812    2.5599    3.2301 N.2       1 <0>        -0.2326
      6 N2         -0.2648    1.4918    2.5933 N.2       1 <0>        -0.2730
      7 C4         -3.1141    1.6697    0.2590 C.2       1 <0>         0.6044
      8 O1         -2.7927    1.3605   -0.8725 O.2       1 <0>        -0.5202
      9 N3         -4.4129    1.8653    0.5610 N.am      1 <0>        -0.5900
     10 C5         -4.8096    2.3215    1.9001 C.3       1 <0>         0.0982
     11 C6         -5.8518    1.3583    2.4654 C.3       1 <0>        -0.1105
     12 C7         -7.0122    1.2276    1.4761 C.3       1 <0>        -0.1299
     13 C8         -6.4948    0.6598    0.1525 C.3       1 <0>        -0.1110
     14 C9         -5.4595    1.6205   -0.4408 C.3       1 <0>         0.1115
     15 C10        -8.0559    0.3018    2.0459 C.2       1 <0>         0.4644
     16 O2         -8.3551   -0.7083    1.4542 O.co2     1 <0>        -0.6378
     17 O3         -8.6530    0.5992    3.2106 O.co2     1 <0>        -0.7698
     18 H1         -1.3792   -0.3779    0.0358 H         1 <0>         0.0934
     19 H2         -0.6241   -1.0708    1.5111 H         1 <0>         0.0874
     20 H3          0.3635   -0.0974    0.3691 H         1 <0>         0.0890
     21 H4         -3.9276    2.3408    2.5571 H         1 <0>         0.0680
     22 H5         -5.2377    3.3324    1.8312 H         1 <0>         0.0833
     23 H6         -5.3915    0.3720    2.6242 H         1 <0>         0.0617
     24 H7         -6.2278    1.7460    3.4237 H         1 <0>         0.0884
     25 H8         -7.4706    2.2129    1.3058 H         1 <0>         0.0733
     26 H9         -6.0278   -0.3199    0.3314 H         1 <0>         0.0677
     27 H10        -7.3337    0.5434   -0.5494 H         1 <0>         0.0803
     28 H11        -5.9429    2.5723   -0.7061 H         1 <0>         0.0724
     29 H12        -5.0093    1.1747   -1.3400 H         1 <0>         0.0942
@<TRIPOS>BOND
     1    1    2 1
     2    1   18 1
     3    1   19 1
     4    1   20 1
     5    2    6 1
     6    2    3 2
     7    3    4 1
     8    3    7 1
     9    4    5 1
    10    5    6 2
    11    7    8 2
    12    7    9 am
    13    9   14 1
    14    9   10 1
    15   10   11 1
    16   10   21 1
    17   10   22 1
    18   11   12 1
    19   11   23 1
    20   11   24 1
    21   12   13 1
    22   12   15 1
    23   12   25 1
    24   13   14 1
    25   13   26 1
    26   13   27 1
    27   14   28 1
    28   14   29 1
    29   15   16 2
    30   15   17 1
@<TRIPOS>MOLECULE
ZINC36888834
   33    35     0     0     0
SMALL
USER_CHARGES

@<TRIPOS>ATOM
      1 C1          2.8267    0.6210   -2.9778 C.3       1 <0>         0.1131
      2 N1          2.4259   -0.7195   -2.5435 N.pl3     1 <0>        -0.3891
      3 C2          1.1491   -1.1338   -2.3062 C.ar      1 <0>         0.3430
      4 C3          1.2319   -2.4838   -1.9122 C.ar      1 <0>        -0.2838
      5 C4          2.5988   -2.8364   -1.9295 C.2       1 <0>         0.1183
      6 N2          3.2882   -1.7975   -2.3064 N.2       1 <0>        -0.2517
      7 C5          0.0377   -3.1630   -1.6035 C.ar      1 <0>         0.5359
      8 N3         -1.1091   -2.4988   -1.6985 N.ar      1 <0>        -0.5618
      9 C6         -1.1371   -1.2319   -2.0726 C.ar      1 <0>         0.3557
     10 N4         -0.0493   -0.5561   -2.3712 N.ar      1 <0>        -0.5518
     11 N5          0.0579   -4.4872   -1.2121 N.pl3     1 <0>        -0.6710
     12 C7          0.1738   -4.8464    0.2079 C.3       1 <0>         0.1536
     13 C8         -0.9762   -5.7902    0.5732 C.3       1 <0>        -0.1348
     14 C9         -0.9710   -6.9872   -0.3804 C.3       1 <0>        -0.0912
     15 C10        -1.1837   -6.4994   -1.8153 C.3       1 <0>        -0.1678
     16 H1         -2.1298   -5.9620   -1.8803 H         1 <0>         0.0662
     17 C11        -0.0422   -5.5636   -2.2071 C.3       1 <0>         0.1780
     18 C12        -1.2115   -7.6816   -2.7495 C.2       1 <0>         0.4991
     19 O1         -2.0535   -8.5518   -2.6067 O.co2     1 <0>        -0.6988
     20 O2         -0.3921   -7.7678   -3.6481 O.co2     1 <0>        -0.6992
     21 H2          2.8335    0.6631   -4.0670 H         1 <0>         0.0715
     22 H3          2.1202    1.3549   -2.5903 H         1 <0>         0.0892
     23 H4          3.8247    0.8423   -2.5994 H         1 <0>         0.0883
     24 H5          3.0040   -3.8052   -1.6774 H         1 <0>         0.2007
     25 H6         -2.0920   -0.7314   -2.1364 H         1 <0>         0.2019
     26 H7          1.1264   -5.3469    0.3816 H         1 <0>         0.0577
     27 H8          0.1152   -3.9455    0.8187 H         1 <0>         0.0588
     28 H9         -0.8480   -6.1405    1.5974 H         1 <0>         0.0625
     29 H10        -1.9242   -5.2595    0.4857 H         1 <0>         0.0636
     30 H11        -0.0133   -7.5031   -0.3104 H         1 <0>         0.0534
     31 H12        -1.7733   -7.6727   -0.1071 H         1 <0>         0.0643
     32 H13        -0.2433   -5.1357   -3.1893 H         1 <0>         0.0616
     33 H14         0.8924   -6.1238   -2.2347 H         1 <0>         0.0646
@<TRIPOS>BOND
     1    1    2 1
     2    1   21 1
     3    1   22 1
     4    1   23 1
     5    2    6 1
     6    2    3 1
     7    3   10 ar
     8    3    4 ar
     9    4    5 1
    10    4    7 ar
    11    5    6 2
    12    5   24 1
    13    7    8 ar
    14    7   11 1
    15    8    9 ar
    16    9   10 ar
    17    9   25 1
    18   11   17 1
    19   11   12 1
    20   12   13 1
    21   12   26 1
    22   12   27 1
    23   13   14 1
    24   13   28 1
    25   13   29 1
    26   14   15 1
    27   14   30 1
    28   14   31 1
    29   15   16 1
    30   15   17 1
    31   15   18 1
    32   17   32 1
    33   17   33 1
    34   18   19 2
    35   18   20 1
@<TRIPOS>MOLECULE
ZINC40590873
   43    45     0     0     0
SMALL
USER_CHARGES

@<TRIPOS>ATOM
      1 C1          0.5288    1.1032    0.3429 C.3       1 <0>        -0.1203
      2 C2          1.9997    1.5135    0.2495 C.3       1 <0>        -0.1160
      3 C3          2.5499    1.1328   -1.1268 C.3       1 <0>        -0.1088
      4 C4          2.4257   -0.3790   -1.3232 C.3       1 <0>        -0.0934
      5 H1          2.9896   -0.8937   -0.5452 H         1 <0>         0.0728
      6 C5          2.9817   -0.7657   -2.6963 C.3       1 <0>         0.1398
      7 N1          2.1292   -0.1761   -3.7375 N.am      1 <0>        -0.6037
      8 C6          0.6835   -0.4353   -3.6957 C.3       1 <0>         0.0590
      9 C7          0.1537   -0.0451   -2.3125 C.3       1 <0>        -0.1309
     10 C8          0.9523   -0.7843   -1.2376 C.3       1 <0>        -0.0808
     11 H2          0.8605   -1.8597   -1.3897 H         1 <0>         0.0699
     12 C9          0.4054   -0.4086    0.1422 C.3       1 <0>        -0.1112
     13 C10         2.6626    0.5877   -4.7115 C.2       1 <0>         0.7428
     14 O1          3.7777    1.0532   -4.5770 O.2       1 <0>        -0.6179
     15 N2          1.9599    0.8354   -5.8346 N.am      1 <0>        -0.6105
     16 C11         2.4879    1.4699   -7.0560 C.3       1 <0>         0.1292
     17 C12         1.2464    2.0773   -7.7558 C.3       1 <0>        -0.1343
     18 C13         0.1661    1.0035   -7.4607 C.3       1 <0>        -0.1100
     19 C14         0.5415    0.5118   -6.0467 C.3       1 <0>         0.0470
     20 H3         -0.0705    1.0233   -5.3038 H         1 <0>         0.0736
     21 C15         0.3352   -0.9777   -5.9475 C.2       1 <0>         0.4986
     22 O2         -0.7942   -1.4356   -5.9116 O.co2     1 <0>        -0.6988
     23 O3          1.2976   -1.7248   -5.9030 O.co2     1 <0>        -0.6729
     24 H4          0.1385    1.3723    1.3244 H         1 <0>         0.0539
     25 H5         -0.0420    1.6198   -0.4287 H         1 <0>         0.0637
     26 H6          2.0858    2.5910    0.3898 H         1 <0>         0.0550
     27 H7          2.5700    0.9998    1.0234 H         1 <0>         0.0567
     28 H8          1.9810    1.6479   -1.9009 H         1 <0>         0.0660
     29 H9          3.5985    1.4230   -1.1921 H         1 <0>         0.0585
     30 H10         3.9983   -0.3861   -2.7986 H         1 <0>         0.0838
     31 H11         2.9834   -1.8510   -2.7971 H         1 <0>         0.0581
     32 H12         0.1832    0.1595   -4.4600 H         1 <0>         0.1294
     33 H13         0.4967   -1.4944   -3.8733 H         1 <0>         0.0843
     34 H14         0.2622    1.0303   -2.1716 H         1 <0>         0.0619
     35 H15        -0.8989   -0.3178   -2.2360 H         1 <0>         0.0662
     36 H16         0.9770   -0.9255    0.9130 H         1 <0>         0.0574
     37 H17        -0.6428   -0.6999    0.2096 H         1 <0>         0.0591
     38 H18         3.1999    2.2541   -6.7988 H         1 <0>         0.0703
     39 H19         2.9583    0.7248   -7.6976 H         1 <0>         0.0588
     40 H20         0.9769    3.0352   -7.3110 H         1 <0>         0.0695
     41 H21         1.4132    2.1794   -8.8281 H         1 <0>         0.0773
     42 H22        -0.8297    1.4467   -7.4656 H         1 <0>         0.0744
     43 H23         0.2289    0.1857   -8.1787 H         1 <0>         0.0724
@<TRIPOS>BOND
     1    1   12 1
     2    1    2 1
     3    1   24 1
     4    1   25 1
     5    2    3 1
     6    2   26 1
     7    2   27 1
     8    3    4 1
     9    3   28 1
    10    3   29 1
    11    4    5 1
    12    4   10 1
    13    4    6 1
    14    6    7 1
    15    6   30 1
    16    6   31 1
    17    7    8 1
    18    7   13 am
    19    8    9 1
    20    8   32 1
    21    8   33 1
    22    9   10 1
    23    9   34 1
    24    9   35 1
    25   10   11 1
    26   10   12 1
    27   12   36 1
    28   12   37 1
    29   13   14 2
    30   13   15 am
    31   15   19 1
    32   15   16 1
    33   16   17 1
    34   16   38 1
    35   16   39 1
    36   17   18 1
    37   17   40 1
    38   17   41 1
    39   18   19 1
    40   18   42 1
    41   18   43 1
    42   19   20 1
    43   19   21 1
    44   21   22 2
    45   21   23 1
@<TRIPOS>MOLECULE
ZINC50290431
   35    36     0     0     0
SMALL
USER_CHARGES

@<TRIPOS>ATOM
      1 C1         -0.0452    1.3302    0.5722 C.3       1 <0>        -0.1746
      2 C2         -0.0327   -0.1690    0.4199 C.2       1 <0>         0.5130
      3 O1          1.0222   -0.7668    0.3906 O.2       1 <0>        -0.5550
      4 N1         -1.1937   -0.8455    0.3164 N.am      1 <0>        -0.6101
      5 C3         -2.4792   -0.1338    0.3442 C.3       1 <0>         0.0874
      6 C4         -3.2701   -0.5008   -0.9175 C.3       1 <0>         0.1085
      7 N2         -3.2733   -1.9634   -1.0609 N.am      1 <0>        -0.6020
      8 C5         -1.9879   -2.6752   -1.0887 C.3       1 <0>         0.0982
      9 C6         -1.1968   -2.3076    0.1674 C.3       1 <0>         0.0993
     10 C7         -4.4344   -2.6399   -1.1645 C.2       1 <0>         0.5615
     11 O2         -4.4235   -3.8372   -1.3578 O.2       1 <0>        -0.5630
     12 C8         -5.7462   -1.9087   -1.0401 C.3       1 <0>        -0.1778
     13 C9         -6.0619   -1.4493    0.3931 C.3       1 <0>        -0.1091
     14 C10        -7.5186   -1.8596    0.1197 C.3       1 <0>        -0.1287
     15 C11        -6.9631   -2.8418   -0.9250 C.3       1 <0>        -0.1007
     16 C12        -5.9123   -0.8247   -2.0738 C.2       1 <0>         0.5222
     17 O3         -5.1200   -0.7355   -2.9962 O.co2     1 <0>        -0.6804
     18 O4         -6.8389   -0.0370   -1.9877 O.co2     1 <0>        -0.6774
     19 H1          0.9790    1.6970    0.6402 H         1 <0>         0.0899
     20 H2         -0.5353    1.7791   -0.2917 H         1 <0>         0.0908
     21 H3         -0.5882    1.5989    1.4783 H         1 <0>         0.0876
     22 H4         -3.0428   -0.4309    1.2286 H         1 <0>         0.0744
     23 H5         -2.3016    0.9415    0.3648 H         1 <0>         0.0966
     24 H6         -4.2945   -0.1400   -0.8251 H         1 <0>         0.1081
     25 H7         -2.7978   -0.0488   -1.7897 H         1 <0>         0.0740
     26 H8         -2.1655   -3.7504   -1.1093 H         1 <0>         0.1002
     27 H9         -1.4242   -2.3780   -1.9731 H         1 <0>         0.0662
     28 H10        -0.1725   -2.6677    0.0712 H         1 <0>         0.1004
     29 H11        -1.6670   -2.7631    1.0389 H         1 <0>         0.0694
     30 H12        -5.5758   -2.0505    1.1614 H         1 <0>         0.0662
     31 H13        -5.9316   -0.3781    0.5470 H         1 <0>         0.0700
     32 H14        -8.0006   -2.3489    0.9661 H         1 <0>         0.0547
     33 H15        -8.1238   -1.0613   -0.3098 H         1 <0>         0.0988
     34 H16        -7.5603   -2.8948   -1.8354 H         1 <0>         0.0638
     35 H17        -6.7234   -3.8238   -0.5171 H         1 <0>         0.0775
@<TRIPOS>BOND
     1    1    2 1
     2    1   19 1
     3    1   20 1
     4    1   21 1
     5    2    3 2
     6    2    4 am
     7    4    9 1
     8    4    5 1
     9    5    6 1
    10    5   22 1
    11    5   23 1
    12    6    7 1
    13    6   24 1
    14    6   25 1
    15    7    8 1
    16    7   10 am
    17    8    9 1
    18    8   26 1
    19    8   27 1
    20    9   28 1
    21    9   29 1
    22   10   11 2
    23   10   12 1
    24   12   15 1
    25   12   13 1
    26   12   16 1
    27   13   14 1
    28   13   30 1
    29   13   31 1
    30   14   15 1
    31   14   32 1
    32   14   33 1
    33   15   34 1
    34   15   35 1
    35   16   17 2
    36   16   18 1
@<TRIPOS>MOLECULE
ZINC62136818
   34    35     0     0     0
SMALL
USER_CHARGES

@<TRIPOS>ATOM
      1 C1          4.6076    1.1467    1.1933 C.3       1 <0>        -0.1781
      2 C2          3.1405    0.7226    1.4514 C.3       1 <0>         0.0462
      3 N1          2.2683    1.8494    1.2140 N.am      1 <0>        -0.6177
      4 C3          1.6881    2.1543   -0.1150 C.3       1 <0>         0.1015
      5 C4          2.7349    1.9427   -1.2286 C.3       1 <0>         0.0512
      6 O1          3.9917    2.3983   -0.7954 O.3       1 <0>        -0.3653
      7 C5          4.8140    1.3693   -0.2521 C.3       1 <0>         0.0661
      8 C6          1.9689    2.6603    2.2480 C.2       1 <0>         0.7199
      9 O2          1.2634    3.6348    2.0719 O.2       1 <0>        -0.5923
     10 N2          2.4515    2.3910    3.4773 N.am      1 <0>        -0.6322
     11 C7          3.1925    1.1804    3.8606 C.3       1 <0>         0.0893
     12 C8          3.5175    1.2991    5.3645 C.3       1 <0>        -0.1129
     13 C9          2.4514    2.3057    5.8720 C.3       1 <0>        -0.1658
     14 H1          1.5052    1.8038    6.0744 H         1 <0>         0.0749
     15 C10         2.3294    3.2644    4.6586 C.3       1 <0>         0.1496
     16 C11         2.9410    3.0415    7.0927 C.2       1 <0>         0.5038
     17 O3          4.0372    2.7844    7.5605 O.co2     1 <0>        -0.6914
     18 O4          2.2410    3.8938    7.6123 O.co2     1 <0>        -0.6943
     19 H2          4.8197    2.0678    1.7361 H         1 <0>         0.0786
     20 H3          5.2786    0.3602    1.5386 H         1 <0>         0.0873
     21 H4          2.8736   -0.0922    0.7783 H         1 <0>         0.0666
     22 H5          3.0340    0.3914    2.4844 H         1 <0>         0.1371
     23 H6          0.8361    1.4984   -0.2939 H         1 <0>         0.0644
     24 H7          1.3518    3.1910   -0.1307 H         1 <0>         0.0960
     25 H8          2.7978    0.8815   -1.4696 H         1 <0>         0.0527
     26 H9          2.4352    2.4976   -2.1176 H         1 <0>         0.0941
     27 H10         5.8583    1.6337   -0.4183 H         1 <0>         0.0823
     28 H11         4.6044    0.4397   -0.7813 H         1 <0>         0.0471
     29 H12         2.5782    0.2978    3.6826 H         1 <0>         0.0678
     30 H13         4.1163    1.1136    3.2858 H         1 <0>         0.0762
     31 H14         3.4048    0.3351    5.8607 H         1 <0>         0.0721
     32 H15         4.5224    1.6947    5.5119 H         1 <0>         0.0869
     33 H16         3.1335    4.0002    4.6711 H         1 <0>         0.0623
     34 H17         1.3593    3.7613    4.6643 H         1 <0>         0.0759
@<TRIPOS>BOND
     1    1    7 1
     2    1    2 1
     3    1   19 1
     4    1   20 1
     5    2    3 1
     6    2   21 1
     7    2   22 1
     8    3    4 1
     9    3    8 am
    10    4    5 1
    11    4   23 1
    12    4   24 1
    13    5    6 1
    14    5   25 1
    15    5   26 1
    16    6    7 1
    17    7   27 1
    18    7   28 1
    19    8    9 2
    20    8   10 am
    21   10   15 1
    22   10   11 1
    23   11   12 1
    24   11   29 1
    25   11   30 1
    26   12   13 1
    27   12   31 1
    28   12   32 1
    29   13   14 1
    30   13   15 1
    31   13   16 1
    32   15   33 1
    33   15   34 1
    34   16   17 2
    35   16   18 1
@<TRIPOS>MOLECULE
ZINC04132369
   33    35     0     0     0
SMALL
USER_CHARGES
methyl-nitro-BLAHcarboxylic acid
@<TRIPOS>ATOM
      1 C1          5.3898    3.3468    2.2540 C.3       1 <0>        -0.0999
      2 C2          4.4863    2.2621    1.7266 C.ar      1 <0>        -0.1402
      3 C3          4.8718    0.9442    1.8334 C.ar      1 <0>        -0.0304
      4 C4          4.0529   -0.0619    1.3546 C.ar      1 <0>        -0.0918
      5 C5          2.8472    0.2626    0.7614 C.ar      1 <0>        -0.0281
      6 C6          2.4566    1.5795    0.6449 C.ar      1 <0>        -0.0930
      7 C7          3.2690    2.6056    1.1359 C.ar      1 <0>         0.2290
      8 N1          2.9399    3.9581    1.0784 N.pl3     1 <0>        -0.6144
      9 C8          1.6913    4.3067    0.3815 C.3       1 <0>         0.0461
     10 H1          1.3387    5.2821    0.7165 H         1 <0>         0.1038
     11 C9          0.6735    3.2412    0.7323 C.3       1 <0>        -0.0771
     12 H2          0.6043    3.0960    1.8104 H         1 <0>         0.0860
     13 C10         1.1797    1.9585    0.0013 C.3       1 <0>        -0.0546
     14 H3          1.3981    2.2285   -1.0319 H         1 <0>         0.1148
     15 C11        -0.0126    1.0758    0.0080 C.2       1 <0>        -0.1565
     16 C12        -1.1015    1.8370    0.0167 C.2       1 <0>        -0.1607
     17 C13        -0.7044    3.3148    0.0647 C.3       1 <0>        -0.0940
     18 C14         1.9223    4.3261   -1.1076 C.2       1 <0>         0.4481
     19 O1          2.8933    3.7801   -1.5755 O.co2     1 <0>        -0.6291
     20 N2          4.4652   -1.4781    1.4762 N.pl3     1 <0>         0.0470
     21 O2          3.7414   -2.3616    1.0530 O.2       1 <0>        -0.1835
     22 O3          5.5282   -1.7602    1.9995 O.3       1 <0>        -0.1855
     23 H4          5.1459    3.5475    3.2973 H         1 <0>         0.0735
     24 H5          6.4280    3.0231    2.1794 H         1 <0>         0.0676
     25 H6          5.2491    4.2543    1.6669 H         1 <0>         0.0691
     26 H7          5.8171    0.6956    2.2927 H         1 <0>         0.1460
     27 H8          2.2065   -0.5216    0.3859 H         1 <0>         0.1449
     28 H9          3.7133    4.5040    0.7293 H         1 <0>         0.3749
     29 H10         0.0021   -0.0041    0.0020 H         1 <0>         0.1279
     30 H11        -2.1162    1.4679   -0.0048 H         1 <0>         0.1274
     31 H12        -1.4030    3.8903    0.6721 H         1 <0>         0.0677
     32 H13        -0.6301    3.7287   -0.9409 H         1 <0>         0.1111
     33 O4          1.0493    4.9499   -1.9141 O.co2     1 <0>        -0.7460
@<TRIPOS>BOND
     1    1    2 1
     2    1   23 1
     3    1   24 1
     4    1   25 1
     5    2    7 ar
     6    2    3 ar
     7    3    4 ar
     8    3   26 1
     9    4    5 ar
    10    4   20 1
    11    5    6 ar
    12    5   27 1
    13    6   13 1
    14    6    7 ar
    15    7    8 1
    16    8    9 1
    17    8   28 1
    18    9   10 1
    19    9   11 1
    20    9   18 1
    21   11   12 1
    22   11   17 1
    23   11   13 1
    24   13   14 1
    25   13   15 1
    26   15   16 2
    27   15   29 1
    28   16   17 1
    29   16   30 1
    30   17   31 1
    31   17   32 1
    32   18   19 2
    33   18   33 1
    34   20   21 2
    35   20   22 1
@<TRIPOS>MOLECULE
ZINC20214768
   29    30     0     0     0
SMALL
USER_CHARGES
(2R)-1-(4-chloro1H-pyrrole-2-carbonyl)piperidine-2-carboxylic acid
@<TRIPOS>ATOM
      1 C1         -3.0925   -2.4810    1.5003 C.2       1 <0>        -0.1181
      2 C2         -4.3796   -3.0225    1.5834 C.2       1 <0>        -0.1229
      3 C3         -5.2544   -2.0832    1.1487 C.2       1 <0>         0.0089
      4 N1         -4.5639   -0.9692    0.8001 N.pl3     1 <0>        -0.5424
      5 H1         -5.0993   -0.0869    0.4194 H         1 <0>         0.4509
      6 C4         -3.2236   -1.1971    1.0146 C.2       1 <0>         0.0054
      7 C5         -2.1325   -0.2490    0.7657 C.2       1 <0>         0.5659
      8 O1         -1.0220   -0.6595    0.4842 O.2       1 <0>        -0.4517
      9 N2         -2.3598    1.0769    0.8489 N.am      1 <0>        -0.6005
     10 C6         -3.6413    1.5864    1.3557 C.3       1 <0>         0.0901
     11 C7         -4.2268    2.5590    0.3270 C.3       1 <0>        -0.1375
     12 C8         -3.1966    3.6471    0.0158 C.3       1 <0>        -0.1170
     13 C9         -1.9420    3.0077   -0.5835 C.3       1 <0>        -0.1169
     14 C10        -1.3306    2.0403    0.4349 C.3       1 <0>         0.1008
     15 H2         -0.9779    2.5706    1.3318 H         1 <0>         0.0694
     16 C11        -0.1758    1.3058   -0.1962 C.2       1 <0>         0.4871
     17 O2         -0.3428    0.6800   -1.2161 O.co2     1 <0>        -0.6264
     18 O3          1.0394    1.3515    0.3719 O.co2     1 <0>        -0.7683
     19 Cl1        -4.7839   -4.6169    2.1386 Cl        1 <0>        -0.0600
     20 H3         -2.1701   -2.9746    1.7683 H         1 <0>         0.1539
     21 H4         -6.3263   -2.2022    1.0898 H         1 <0>         0.1749
     22 H5         -4.3342    0.7463    1.5112 H         1 <0>         0.0818
     23 H6         -3.4770    2.1076    2.3103 H         1 <0>         0.0684
     24 H7         -4.4747    2.0123   -0.5948 H         1 <0>         0.0647
     25 H8         -5.1377    3.0206    0.7358 H         1 <0>         0.0720
     26 H9         -3.6233    4.3609   -0.7042 H         1 <0>         0.0621
     27 H10        -2.9307    4.1762    0.9428 H         1 <0>         0.0625
     28 H11        -2.2114    2.4582   -1.4975 H         1 <0>         0.0720
     29 H12        -1.2120    3.7930   -0.8296 H         1 <0>         0.0708
@<TRIPOS>BOND
     1    1    6 2
     2    1    2 1
     3    1   20 1
     4    2    3 2
     5    2   19 1
     6    3    4 1
     7    3   21 1
     8    4    5 1
     9    4    6 1
    10    6    7 1
    11    7    8 2
    12    7    9 am
    13    9   14 1
    14    9   10 1
    15   10   11 1
    16   10   22 1
    17   10   23 1
    18   11   12 1
    19   11   24 1
    20   11   25 1
    21   12   13 1
    22   12   26 1
    23   12   27 1
    24   13   14 1
    25   13   28 1
    26   13   29 1
    27   14   15 1
    28   14   16 1
    29   16   17 2
    30   16   18 1
@<TRIPOS>MOLECULE
ZINC40524506
   39    40     0     0     0
SMALL
USER_CHARGES

@<TRIPOS>ATOM
      1 C1          0.0150    1.5266   -0.0106 C.3       1 <0>        -0.1343
      2 C2          0.0141   -0.0034   -0.0057 C.3       1 <0>         0.1657
      3 H1         -1.0091   -0.3679    0.0861 H         1 <0>         0.0605
      4 C3          0.6287   -0.5215   -1.3097 C.3       1 <0>        -0.1312
      5 C4          0.7526   -2.0453   -1.2405 C.3       1 <0>        -0.1169
      6 C5          1.6772   -2.4316   -0.0837 C.3       1 <0>        -0.1344
      7 C6          1.0745   -1.9351    1.2342 C.3       1 <0>         0.1162
      8 N1          0.8146   -0.4928    1.1250 N.am      1 <0>        -0.6351
      9 C7          1.3040    0.3650    2.0420 C.2       1 <0>         0.7202
     10 O1          0.9967    1.5406    1.9999 O.2       1 <0>        -0.5601
     11 N2          2.1342   -0.0803    3.0059 N.am      1 <0>        -0.7177
     12 C8          2.5743    0.8257    4.0697 C.3       1 <0>         0.1206
     13 C9          3.4479    1.9636    3.4858 C.3       1 <0>        -0.1116
     14 C10         4.8342    1.2887    3.3380 C.3       1 <0>        -0.1209
     15 C11         4.9505    0.3866    4.5840 C.3       1 <0>        -0.1195
     16 C12         3.5136    0.0922    5.0493 C.3       1 <0>        -0.1115
     17 C13         1.3860    1.3925    4.8031 C.2       1 <0>         0.5039
     18 O2          0.2571    1.0632    4.4812 O.co2     1 <0>        -0.6754
     19 O3          1.5536    2.1806    5.7182 O.co2     1 <0>        -0.7028
     20 H2          1.0428    1.8893   -0.0008 H         1 <0>         0.0622
     21 H3         -0.4891    1.8874   -0.9072 H         1 <0>         0.0310
     22 H4         -0.5081    1.8931    0.8726 H         1 <0>         0.0864
     23 H5         -0.0112   -0.2463   -2.1481 H         1 <0>         0.0688
     24 H6          1.6168   -0.0820   -1.4460 H         1 <0>         0.0638
     25 H7         -0.2327   -2.4828   -1.0794 H         1 <0>         0.0618
     26 H8          1.1670   -2.4189   -2.1769 H         1 <0>         0.0595
     27 H9          1.7836   -3.5159   -0.0495 H         1 <0>         0.0690
     28 H10         2.6555   -1.9741   -0.2316 H         1 <0>         0.0643
     29 H11         0.1387   -2.4592    1.4283 H         1 <0>         0.0616
     30 H12         1.7748   -2.1197    2.0488 H         1 <0>         0.0737
     31 H13         2.4403   -1.0007    2.9952 H         1 <0>         0.3761
     32 H14         3.0682    2.2828    2.5152 H         1 <0>         0.0713
     33 H15         3.4994    2.8046    4.1772 H         1 <0>         0.0753
     34 H16         4.8717    0.6894    2.4283 H         1 <0>         0.0542
     35 H17         5.6251    2.0387    3.3348 H         1 <0>         0.0556
     36 H18         5.4573   -0.5432    4.3258 H         1 <0>         0.0531
     37 H19         5.4987    0.9052    5.3706 H         1 <0>         0.0601
     38 H20         3.3645    0.4679    6.0615 H         1 <0>         0.0822
     39 H21         3.3231   -0.9805    5.0168 H         1 <0>         0.0543
@<TRIPOS>BOND
     1    1    2 1
     2    1   20 1
     3    1   21 1
     4    1   22 1
     5    2    3 1
     6    2    8 1
     7    2    4 1
     8    4    5 1
     9    4   23 1
    10    4   24 1
    11    5    6 1
    12    5   25 1
    13    5   26 1
    14    6    7 1
    15    6   27 1
    16    6   28 1
    17    7    8 1
    18    7   29 1
    19    7   30 1
    20    8    9 am
    21    9   10 2
    22    9   11 am
    23   11   12 1
    24   11   31 1
    25   12   16 1
    26   12   13 1
    27   12   17 1
    28   13   14 1
    29   13   32 1
    30   13   33 1
    31   14   15 1
    32   14   34 1
    33   14   35 1
    34   15   16 1
    35   15   36 1
    36   15   37 1
    37   16   38 1
    38   16   39 1
    39   17   18 2
    40   17   19 1
@<TRIPOS>MOLECULE
ZINC44593126
   35    37     0     0     0
SMALL
USER_CHARGES

@<TRIPOS>ATOM
      1 C1          0.8671    1.1477   -1.2649 C.2       1 <0>        -0.1202
      2 C2          2.1469    1.5557   -1.4242 C.2       1 <0>        -0.1870
      3 S1          3.0593    0.0808   -0.9961 S.3       1 <0>        -0.0002
      4 C3          1.6712   -0.9647   -0.6413 C.2       1 <0>        -0.1427
      5 C4          0.5972   -0.1575   -0.8568 C.2       1 <0>        -0.1030
      6 C5         -0.8180   -0.6926   -0.6452 C.3       1 <0>         0.0960
      7 H1         -1.4439   -0.4278   -1.4974 H         1 <0>         0.1098
      8 N1         -0.7322   -2.1544   -0.5259 N.am      1 <0>        -0.5940
      9 C6          0.2875   -2.7407    0.3566 C.3       1 <0>         0.1402
     10 C7          1.6730   -2.3954   -0.2110 C.3       1 <0>        -0.0517
     11 C8         -1.5767   -2.9469   -1.2153 C.2       1 <0>         0.7237
     12 O1         -1.3303   -4.1304   -1.3450 O.2       1 <0>        -0.5971
     13 N2         -2.6943   -2.4275   -1.7609 N.am      1 <0>        -0.6341
     14 C9         -3.5418   -3.2176   -2.6699 C.3       1 <0>         0.1150
     15 C10        -4.9275   -3.3512   -2.0355 C.3       1 <0>         0.0981
     16 N3         -5.3961   -2.0634   -1.5423 N.am      1 <0>        -0.7231
     17 C11        -4.6036   -1.0329   -1.2438 C.2       1 <0>         0.5148
     18 O2         -5.1046   -0.0374   -0.7653 O.2       1 <0>        -0.5334
     19 C12        -3.1202   -1.0508   -1.4680 C.3       1 <0>         0.0624
     20 C13        -1.4006   -0.1097    0.6164 C.2       1 <0>         0.4908
     21 O3         -1.6967    1.0722    0.6618 O.co2     1 <0>        -0.6696
     22 O4         -1.5759   -0.8199    1.5918 O.co2     1 <0>        -0.6685
     23 H2          0.0544    1.8346   -1.4497 H         1 <0>         0.1369
     24 H3          2.5200    2.5218   -1.7308 H         1 <0>         0.1828
     25 H4          0.1877   -2.3260    1.3596 H         1 <0>         0.0922
     26 H5          0.1643   -3.8231    0.3919 H         1 <0>         0.0930
     27 H6          1.8869   -3.0346   -1.0676 H         1 <0>         0.0819
     28 H7          2.4308   -2.5450    0.5581 H         1 <0>         0.0863
     29 H8         -3.6246   -2.7091   -3.6305 H         1 <0>         0.0736
     30 H9         -3.1058   -4.2063   -2.8128 H         1 <0>         0.1118
     31 H10        -5.6286   -3.7266   -2.7808 H         1 <0>         0.0862
     32 H11        -4.8756   -4.0559   -1.2056 H         1 <0>         0.0693
     33 H12        -6.3517   -1.9468   -1.4228 H         1 <0>         0.3959
     34 H13        -2.6117   -0.6942   -0.5723 H         1 <0>         0.1650
     35 H14        -2.8740   -0.4053   -2.3111 H         1 <0>         0.0987
@<TRIPOS>BOND
     1    1    5 1
     2    1    2 2
     3    1   23 1
     4    2    3 1
     5    2   24 1
     6    3    4 1
     7    4   10 1
     8    4    5 2
     9    5    6 1
    10    6    7 1
    11    6    8 1
    12    6   20 1
    13    8    9 1
    14    8   11 am
    15    9   10 1
    16    9   25 1
    17    9   26 1
    18   10   27 1
    19   10   28 1
    20   11   12 2
    21   11   13 am
    22   13   19 1
    23   13   14 1
    24   14   15 1
    25   14   29 1
    26   14   30 1
    27   15   16 1
    28   15   31 1
    29   15   32 1
    30   16   17 am
    31   16   33 1
    32   17   18 2
    33   17   19 1
    34   19   34 1
    35   19   35 1
    36   20   21 2
    37   20   22 1
@<TRIPOS>MOLECULE
ZINC61415510
   25    27     0     0     0
SMALL
USER_CHARGES

@<TRIPOS>ATOM
      1 C1         -0.0168    1.3886    0.0097 C.ar      1 <0>        -0.1833
      2 C2          1.1579    2.0858    0.0022 C.ar      1 <0>        -0.0519
      3 C3          2.3632    1.3571   -0.0132 C.ar      1 <0>        -0.0973
      4 C4          3.6054    2.0070   -0.0210 C.ar      1 <0>        -0.0728
      5 C5          4.7673    1.2530   -0.0358 C.ar      1 <0>         0.0270
      6 C6          4.7039   -0.1519   -0.0433 C.ar      1 <0>        -0.0764
      7 C7          3.5096   -0.7962   -0.0359 C.ar      1 <0>        -0.0990
      8 C8          2.3101   -0.0598   -0.0204 C.ar      1 <0>         0.1239
      9 N1          1.1261   -0.6793   -0.0119 N.ar      1 <0>        -0.4755
     10 C9          0.0021   -0.0041    0.0020 C.ar      1 <0>         0.1224
     11 C10         6.0814    1.9290   -0.0441 C.2       1 <0>         0.1721
     12 N2          6.3058    3.1957   -0.3070 N.2       1 <0>        -0.2702
     13 N3          7.5638    3.4446   -0.2246 N.2       1 <0>        -0.3263
     14 C11         8.2202    2.3517    0.0962 C.2       1 <0>         0.3455
     15 N4          7.3002    1.3511    0.2280 N.pl3     1 <0>        -0.3344
     16 N5          7.5401    0.0475    0.5583 N.3       1 <0>        -0.5814
     17 S1          9.9617    2.2067    0.3215 S.3       1 <0>        -0.7981
     18 H1         -0.9588    1.9165    0.0260 H         1 <0>         0.1345
     19 H2          1.1624    3.1657    0.0076 H         1 <0>         0.1392
     20 H3          3.6559    3.0858   -0.0160 H         1 <0>         0.1422
     21 H4          5.6186   -0.7261   -0.0556 H         1 <0>         0.1438
     22 H5          3.4794   -1.8758   -0.0422 H         1 <0>         0.1362
     23 H6         -0.9342   -0.5423    0.0084 H         1 <0>         0.1551
     24 H7          7.7067   -0.5097   -0.2662 H         1 <0>         0.3479
     25 H8          8.3106   -0.0255    1.2058 H         1 <0>         0.3769
@<TRIPOS>BOND
     1    1   10 ar
     2    1    2 ar
     3    1   18 1
     4    2    3 ar
     5    2   19 1
     6    3    8 ar
     7    3    4 ar
     8    4    5 ar
     9    4   20 1
    10    5    6 ar
    11    5   11 1
    12    6    7 ar
    13    6   21 1
    14    7    8 ar
    15    7   22 1
    16    8    9 ar
    17    9   10 ar
    18   10   23 1
    19   11   15 1
    20   11   12 2
    21   12   13 1
    22   13   14 2
    23   14   15 1
    24   14   17 1
    25   15   16 1
    26   16   24 1
    27   16   25 1
@<TRIPOS>MOLECULE
ZINC04457928
   46    49     0     0     0
SMALL
USER_CHARGES
9-[3,4-dihydroxy-5-(hydroxymethyl)tetrahydrofuran-2-yl]-8-(1-piperidyl)-1H-purin-6-one
@<TRIPOS>ATOM
      1 C1          1.3470   -0.2611    6.3493 C.2       1 <0>         0.3873
      2 N1          2.1656   -1.0494    5.6074 N.am      1 <0>        -0.6467
      3 H1          2.8276   -1.6455    6.0616 H         1 <0>         0.4333
      4 C2          2.0909   -1.0331    4.2579 C.2       1 <0>         0.5747
      5 O1          2.8220   -1.7371    3.5818 O.2       1 <0>        -0.5087
      6 C3          1.1413   -0.1762    3.6502 C.2       1 <0>        -0.0915
      7 C4          0.3302    0.6083    4.4736 C.2       1 <0>         0.2671
      8 N2          0.4680    0.5328    5.8045 N.2       1 <0>        -0.5068
      9 N3         -0.4832    1.3299    3.6365 N.pl3     1 <0>        -0.4301
     10 C5         -0.1633    0.9828    2.3536 C.2       1 <0>         0.4292
     11 N4          0.7937    0.0886    2.3663 N.2       1 <0>        -0.4385
     12 N5         -0.7619    1.4928    1.2175 N.pl3     1 <0>        -0.4611
     13 C6         -0.8827    0.4622    0.1785 C.3       1 <0>         0.0721
     14 C7         -1.6772    1.0197   -1.0047 C.3       1 <0>        -0.1176
     15 C8         -0.9573    2.2509   -1.5619 C.3       1 <0>        -0.1246
     16 C9         -0.8011    3.2891   -0.4474 C.3       1 <0>        -0.1154
     17 C10        -0.0319    2.6657    0.7196 C.3       1 <0>         0.0594
     18 C11        -1.5069    2.2958    4.0432 C.3       1 <0>         0.3075
     19 H2         -1.8383    2.8804    3.1850 H         1 <0>         0.1314
     20 C12        -2.7046    1.5683    4.6932 C.3       1 <0>         0.0849
     21 H3         -2.3927    0.6056    5.0982 H         1 <0>         0.0854
     22 C13        -3.1451    2.5178    5.8322 C.3       1 <0>         0.0503
     23 H4         -3.0505    2.0252    6.7999 H         1 <0>         0.0877
     24 C14        -2.1633    3.7062    5.7315 C.3       1 <0>         0.0513
     25 H5         -2.5961    4.5086    5.1340 H         1 <0>         0.0953
     26 O2         -0.9952    3.1654    5.0765 O.3       1 <0>        -0.3371
     27 C15        -1.8021    4.2184    7.1273 C.3       1 <0>         0.0834
     28 O3         -0.9281    5.3429    7.0106 O.3       1 <0>        -0.5632
     29 O4         -4.4881    2.9587    5.6225 O.3       1 <0>        -0.5414
     30 O5         -3.7601    1.3960    3.7455 O.3       1 <0>        -0.5305
     31 H6          1.4261   -0.2927    7.4260 H         1 <0>         0.2183
     32 H7         -1.4001   -0.4061    0.5865 H         1 <0>         0.0802
     33 H8          0.1113    0.1675   -0.1581 H         1 <0>         0.0601
     34 H9         -1.7535    0.2598   -1.7823 H         1 <0>         0.0762
     35 H10        -2.6760    1.3020   -0.6717 H         1 <0>         0.0746
     36 H11         0.0268    1.9615   -1.9307 H         1 <0>         0.0636
     37 H12        -1.5420    2.6768   -2.3772 H         1 <0>         0.0698
     38 H13        -0.2514    4.1504   -0.8268 H         1 <0>         0.0758
     39 H14        -1.7861    3.6070   -0.1056 H         1 <0>         0.0750
     40 H15         0.9580    2.3606    0.3805 H         1 <0>         0.0541
     41 H16         0.0684    3.3979    1.5209 H         1 <0>         0.0755
     42 H17        -2.7102    4.5168    7.6511 H         1 <0>         0.0640
     43 H18        -1.3033    3.4270    7.6869 H         1 <0>         0.0627
     44 H19        -0.6573    5.7202    7.8588 H         1 <0>         0.3849
     45 H20        -4.7966    3.6036    6.2738 H         1 <0>         0.3867
     46 H21        -4.5378    0.9443    4.1007 H         1 <0>         0.3912
@<TRIPOS>BOND
     1    1    8 2
     2    1    2 1
     3    1   31 1
     4    2    3 1
     5    2    4 am
     6    4    5 2
     7    4    6 1
     8    6   11 1
     9    6    7 2
    10    7    8 1
    11    7    9 1
    12    9   10 1
    13    9   18 1
    14   10   11 2
    15   10   12 1
    16   12   17 1
    17   12   13 1
    18   13   14 1
    19   13   32 1
    20   13   33 1
    21   14   15 1
    22   14   34 1
    23   14   35 1
    24   15   16 1
    25   15   36 1
    26   15   37 1
    27   16   17 1
    28   16   38 1
    29   16   39 1
    30   17   40 1
    31   17   41 1
    32   18   19 1
    33   18   26 1
    34   18   20 1
    35   20   21 1
    36   20   22 1
    37   20   30 1
    38   22   23 1
    39   22   24 1
    40   22   29 1
    41   24   25 1
    42   24   26 1
    43   24   27 1
    44   27   28 1
    45   27   42 1
    46   27   43 1
    47   28   44 1
    48   29   45 1
    49   30   46 1
@<TRIPOS>MOLECULE
ZINC16041696
   49    51     0     0     0
SMALL
USER_CHARGES
N-[(4aS,6R,7R,8R,8aS)-8-hydroxy-2,2-dimethyl-6-(4-nitrophenoxy)-4,4a,6,7,8,8a-hexahydropyrano[5,6-d][1,3]dioxin-7-yl]acetamide
@<TRIPOS>ATOM
      1 C1         -3.3559    3.4873   -0.9308 C.3       1 <0>        -0.1706
      2 C2         -3.2684    1.9835   -0.8840 C.2       1 <0>         0.5188
      3 O1         -4.1722    1.3384   -0.3962 O.2       1 <0>        -0.5534
      4 N1         -2.1859    1.3556   -1.3844 N.am      1 <0>        -0.6955
      5 C3         -2.1009   -0.1062   -1.3389 C.3       1 <0>         0.1060
      6 H1         -3.0952   -0.5336   -1.4678 H         1 <0>         0.1118
      7 C4         -1.5257   -0.5445    0.0112 C.3       1 <0>         0.1044
      8 H2         -2.1454   -0.1503    0.8167 H         1 <0>         0.0908
      9 C5         -0.1015   -0.0054    0.1522 C.3       1 <0>         0.0648
     10 H3          0.3344   -0.3697    1.0824 H         1 <0>         0.0887
     11 C6          0.7484   -0.4815   -1.0304 C.3       1 <0>         0.0418
     12 H4          0.8361   -1.5677   -1.0061 H         1 <0>         0.0941
     13 C7          2.1340    0.1690   -0.9297 C.3       1 <0>         0.0646
     14 O2          1.9722    1.5887   -0.8511 O.3       1 <0>        -0.3698
     15 C8          1.1724    2.0194    0.2526 C.3       1 <0>         0.2671
     16 O3         -0.1249    1.4239    0.1645 O.3       1 <0>        -0.3625
     17 C9          1.0370    3.5430    0.2201 C.3       1 <0>        -0.1282
     18 C10         1.8401    1.5951    1.5622 C.3       1 <0>        -0.2097
     19 O4          0.1332   -0.0752   -2.2546 O.3       1 <0>        -0.3737
     20 C11        -1.1793   -0.6010   -2.4574 C.3       1 <0>         0.2473
     21 H5         -1.1412   -1.6902   -2.4424 H         1 <0>         0.0909
     22 O5         -1.6809   -0.1578   -3.7199 O.3       1 <0>        -0.2752
     23 C12        -1.1021   -0.6819   -4.8322 C.ar      1 <0>         0.1832
     24 C13        -0.0686   -1.5995   -4.7109 C.ar      1 <0>        -0.1926
     25 C14         0.5149   -2.1344   -5.8431 C.ar      1 <0>        -0.0133
     26 C15         0.0768   -1.7481   -7.0964 C.ar      1 <0>        -0.0809
     27 C16        -0.9495   -0.8299   -7.2199 C.ar      1 <0>        -0.0149
     28 C17        -1.5399   -0.2960   -6.0908 C.ar      1 <0>        -0.1453
     29 N2          0.7078   -2.3182   -8.3077 N.pl3     1 <0>         0.0330
     30 O6          0.3230   -1.9784   -9.4122 O.2       1 <0>        -0.1610
     31 O7          1.6120   -3.1272   -8.2001 O.3       1 <0>        -0.1634
     32 O8         -1.5046   -1.9717    0.0802 O.3       1 <0>        -0.5577
     33 H6         -3.8336    3.7947   -1.8610 H         1 <0>         0.0941
     34 H7         -3.9442    3.8434   -0.0851 H         1 <0>         0.0940
     35 H8         -2.3530    3.9113   -0.8800 H         1 <0>         0.0816
     36 H9         -1.4631    1.8716   -1.7745 H         1 <0>         0.4135
     37 H10         2.6425   -0.1908   -0.0352 H         1 <0>         0.0795
     38 H11         2.7212   -0.0834   -1.8127 H         1 <0>         0.1126
     39 H12         0.4283    3.8718    1.0624 H         1 <0>         0.0813
     40 H13         2.0257    3.9971    0.2873 H         1 <0>         0.0832
     41 H14         0.5608    3.8457   -0.7124 H         1 <0>         0.0735
     42 H15         1.9361    0.5096    1.5861 H         1 <0>         0.0625
     43 H16         2.8289    2.0489    1.6296 H         1 <0>         0.0818
     44 H17         1.2310    1.9245    2.4040 H         1 <0>         0.0804
     45 H18         0.2767   -1.8984   -3.7323 H         1 <0>         0.1502
     46 H19         1.3165   -2.8521   -5.7493 H         1 <0>         0.1573
     47 H20        -1.2902   -0.5301   -8.1999 H         1 <0>         0.1623
     48 H21        -2.3417    0.4209   -6.1878 H         1 <0>         0.1568
     49 H22        -2.3762   -2.3823   -0.0023 H         1 <0>         0.3961
@<TRIPOS>BOND
     1    1    2 1
     2    1   33 1
     3    1   34 1
     4    1   35 1
     5    2    3 2
     6    2    4 am
     7    4    5 1
     8    4   36 1
     9    5    6 1
    10    5   20 1
    11    5    7 1
    12    7    8 1
    13    7    9 1
    14    7   32 1
    15    9   10 1
    16    9   16 1
    17    9   11 1
    18   11   12 1
    19   11   13 1
    20   11   19 1
    21   13   14 1
    22   13   37 1
    23   13   38 1
    24   14   15 1
    25   15   16 1
    26   15   17 1
    27   15   18 1
    28   17   39 1
    29   17   40 1
    30   17   41 1
    31   18   42 1
    32   18   43 1
    33   18   44 1
    34   19   20 1
    35   20   21 1
    36   20   22 1
    37   22   23 1
    38   23   28 ar
    39   23   24 ar
    40   24   25 ar
    41   24   45 1
    42   25   26 ar
    43   25   46 1
    44   26   27 ar
    45   26   29 1
    46   27   28 ar
    47   27   47 1
    48   28   48 1
    49   29   30 2
    50   29   31 1
    51   32   49 1
@<TRIPOS>MOLECULE
ZINC22589309
   40    43     0     0     0
SMALL
USER_CHARGES
9-[(3aS,4S,6R,6aR)-4-(hydroxymethyl)-2,2-dimethyl-3a,4,6,6a-tetrahydrofuro[4,3-d][1,3]dioxol-6-yl]-2-amino-8-bromo-1H-purin-6-one
@<TRIPOS>ATOM
      1 C1         -0.8633   -0.5405    1.1440 C.3       1 <0>        -0.1732
      2 C2          0.0021   -0.0041    0.0020 C.3       1 <0>         0.2555
      3 O1         -0.0177    1.4536    0.0100 O.3       1 <0>        -0.3619
      4 C3          1.3253    1.8132   -0.0009 C.3       1 <0>         0.0315
      5 H1          1.3604    2.0433   -1.0760 H         1 <0>         0.1204
      6 C4          2.0057    3.0045    0.5998 C.3       1 <0>         0.0758
      7 H2          1.4591    3.3944    1.4711 H         1 <0>         0.1055
      8 O2          3.3180    2.5321    1.0110 O.3       1 <0>        -0.3292
      9 C5          3.3893    1.0909    0.8054 C.3       1 <0>         0.2954
     10 H3          3.8985    0.8294   -0.1339 H         1 <0>         0.1359
     11 C6          1.9388    0.6598    0.8903 C.3       1 <0>         0.0224
     12 H4          1.7620    0.3539    1.9320 H         1 <0>         0.1300
     13 O3          1.3867   -0.4316    0.1873 O.3       1 <0>        -0.3542
     14 N1          4.1808    0.4558    1.8620 N.pl3     1 <0>        -0.4449
     15 C7          5.0543   -0.5865    1.7038 C.2       1 <0>         0.3473
     16 C8          5.5764   -0.8523    2.9745 C.2       1 <0>        -0.1491
     17 C9          6.5229   -1.8940    3.1133 C.2       1 <0>         0.6024
     18 O4          7.0005   -2.1633    4.2023 O.2       1 <0>        -0.5037
     19 N2          6.8854   -2.5831    2.0087 N.am      1 <0>        -0.6719
     20 H5          7.6196   -3.3986    2.0855 H         1 <0>         0.4475
     21 C10         6.3455   -2.2733    0.7961 C.2       1 <0>         0.6736
     22 N3          5.4648   -1.3081    0.6542 N.2       1 <0>        -0.5936
     23 N4          6.7323   -2.9902   -0.3084 N.pl3     1 <0>        -0.8402
     24 N5          4.9995    0.0201    3.8375 N.2       1 <0>        -0.3711
     25 C11         4.1777    0.7912    3.1854 C.2       1 <0>         0.2114
     26 Br1         3.1366    2.1692    3.9556 Br        1 <0>         0.0887
     27 C12         2.1452    4.1179   -0.4403 C.3       1 <0>         0.0845
     28 O5          2.7443    5.2645    0.1667 O.3       1 <0>        -0.5891
     29 C13        -0.5257   -0.5223   -1.3373 C.3       1 <0>        -0.1575
     30 H6         -1.9042   -0.2155    0.9991 H         1 <0>         0.0852
     31 H7         -0.4879   -0.1520    2.1022 H         1 <0>         0.0678
     32 H8         -0.8200   -1.6396    1.1518 H         1 <0>         0.0849
     33 H9          6.3065   -2.7534   -1.2946 H         1 <0>         0.4562
     34 H10         7.4681   -3.8016   -0.2075 H         1 <0>         0.4415
     35 H11         2.7789    3.7684   -1.2688 H         1 <0>         0.0541
     36 H12         1.1507    4.3852   -0.8269 H         1 <0>         0.0653
     37 H13         2.9258    6.1708   -0.4296 H         1 <0>         0.4157
     38 H14         0.1006   -0.1331   -2.1535 H         1 <0>         0.0713
     39 H15        -1.5630   -0.1845   -1.4780 H         1 <0>         0.0861
     40 H16        -0.4941   -1.6218   -1.3432 H         1 <0>         0.0833
@<TRIPOS>BOND
     1    1    2 1
     2    1   30 1
     3    1   31 1
     4    1   32 1
     5    2   13 1
     6    2    3 1
     7    2   29 1
     8    3    4 1
     9    4    5 1
    10    4   11 1
    11    4    6 1
    12    6    7 1
    13    6    8 1
    14    6   27 1
    15    8    9 1
    16    9   10 1
    17    9   11 1
    18    9   14 1
    19   11   12 1
    20   11   13 1
    21   14   25 1
    22   14   15 1
    23   15   22 1
    24   15   16 2
    25   16   17 1
    26   16   24 1
    27   17   18 2
    28   17   19 am
    29   19   20 1
    30   19   21 1
    31   21   22 2
    32   21   23 1
    33   23   33 1
    34   23   34 1
    35   24   25 2
    36   25   26 1
    37   27   28 1
    38   27   35 1
    39   27   36 1
    40   28   37 1
    41   29   38 1
    42   29   39 1
    43   29   40 1
@<TRIPOS>MOLECULE
ZINC47119107
   51    54     0     0     0
SMALL
USER_CHARGES

@<TRIPOS>ATOM
      1 C1         -0.0184    1.5028    0.0103 C.3       1 <0>        -0.1137
      2 C2          0.0021   -0.0041    0.0020 C.2       1 <0>         0.2563
      3 C3         -1.2021   -0.7171    0.0039 C.2       1 <0>        -0.1866
      4 C4         -1.1688   -2.0754   -0.0036 C.2       1 <0>         0.2269
      5 N1          0.0346   -2.7056   -0.0128 N.pl3     1 <0>        -0.3176
      6 C5          1.1924   -1.9800   -0.0144 C.2       1 <0>         0.4787
      7 N2          1.1506   -0.6427   -0.0124 N.2       1 <0>        -0.4679
      8 N3          2.2018   -2.8444   -0.0232 N.2       1 <0>        -0.5598
      9 C6          1.7279   -4.0879   -0.0273 C.2       1 <0>         0.5198
     10 N4          0.4108   -4.0552   -0.0212 N.2       1 <0>        -0.3854
     11 N5          2.5036   -5.2441   -0.0365 N.pl3     1 <0>        -0.8114
     12 C7         -2.4485   -2.8713   -0.0013 C.3       1 <0>        -0.1235
     13 C8         -2.5204    0.0130    0.0147 C.3       1 <0>        -0.0867
     14 C9         -2.8927    0.3566    1.4340 C.2       1 <0>         0.5128
     15 O1         -2.1598    0.0397    2.3469 O.2       1 <0>        -0.5244
     16 N6         -4.0402    1.0160    1.6889 N.am      1 <0>        -0.7263
     17 C10        -4.4022    1.3499    3.0686 C.3       1 <0>         0.1450
     18 C11        -5.1142    0.1577    3.7118 C.3       1 <0>        -0.1437
     19 C12        -5.4603    0.4979    5.1648 C.3       1 <0>         0.1291
     20 N7         -6.2344    1.7465    5.1866 N.pl3     1 <0>        -0.5847
     21 C13        -5.6818    2.9320    4.5174 C.3       1 <0>         0.1299
     22 C14        -5.3332    2.5646    3.0717 C.3       1 <0>        -0.1416
     23 C15        -7.4610    1.8047    5.8251 C.ar      1 <0>         0.5657
     24 N8         -7.9305    0.7200    6.4239 N.ar      1 <0>        -0.5717
     25 C16        -9.0990    0.7419    7.0434 C.ar      1 <0>         0.1937
     26 C17        -9.8332    1.9174    7.0607 C.ar      1 <0>        -0.2947
     27 C18        -9.3125    3.0333    6.4244 C.ar      1 <0>         0.1935
     28 N9         -8.1354    2.9451    5.8275 N.ar      1 <0>        -0.5722
     29 H1          1.0042    1.8801    0.0026 H         1 <0>         0.0918
     30 H2         -0.5455    1.8639   -0.8728 H         1 <0>         0.0938
     31 H3         -0.5286    1.8543    0.9071 H         1 <0>         0.0926
     32 H4          3.4714   -5.1788   -0.0402 H         1 <0>         0.4198
     33 H5          2.0762   -6.1148   -0.0392 H         1 <0>         0.4182
     34 H6         -2.7623   -3.0577   -1.0284 H         1 <0>         0.0985
     35 H7         -2.2843   -3.8217    0.5065 H         1 <0>         0.0931
     36 H8         -3.2244   -2.3103    0.5196 H         1 <0>         0.0922
     37 H9         -2.4332    0.9289   -0.5699 H         1 <0>         0.1187
     38 H10        -3.2916   -0.6232   -0.4194 H         1 <0>         0.1132
     39 H11        -4.6264    1.2694    0.9588 H         1 <0>         0.4022
     40 H12        -3.5001    1.5824    3.6346 H         1 <0>         0.0927
     41 H13        -6.0294   -0.0598    3.1611 H         1 <0>         0.0689
     42 H14        -4.4592   -0.7132    3.6881 H         1 <0>         0.0817
     43 H15        -6.0538   -0.3076    5.5972 H         1 <0>         0.1025
     44 H16        -4.5425    0.6268    5.7384 H         1 <0>         0.0689
     45 H17        -6.4214    3.7327    4.5228 H         1 <0>         0.1052
     46 H18        -4.7820    3.2595    5.0383 H         1 <0>         0.0696
     47 H19        -4.8340    3.4068    2.5925 H         1 <0>         0.0858
     48 H20        -6.2463    2.3244    2.5271 H         1 <0>         0.0734
     49 H21        -9.4766   -0.1455    7.5294 H         1 <0>         0.1668
     50 H22       -10.7903    1.9628    7.5589 H         1 <0>         0.1440
     51 H23        -9.8596    3.9645    6.4193 H         1 <0>         0.1671
@<TRIPOS>BOND
     1    1    2 1
     2    1   29 1
     3    1   30 1
     4    1   31 1
     5    2    7 2
     6    2    3 1
     7    3    4 2
     8    3   13 1
     9    4    5 1
    10    4   12 1
    11    5   10 1
    12    5    6 1
    13    6    7 1
    14    6    8 2
    15    8    9 1
    16    9   10 2
    17    9   11 1
    18   11   32 1
    19   11   33 1
    20   12   34 1
    21   12   35 1
    22   12   36 1
    23   13   14 1
    24   13   37 1
    25   13   38 1
    26   14   15 2
    27   14   16 am
    28   16   17 1
    29   16   39 1
    30   17   22 1
    31   17   18 1
    32   17   40 1
    33   18   19 1
    34   18   41 1
    35   18   42 1
    36   19   20 1
    37   19   43 1
    38   19   44 1
    39   20   21 1
    40   20   23 1
    41   21   22 1
    42   21   45 1
    43   21   46 1
    44   22   47 1
    45   22   48 1
    46   23   28 ar
    47   23   24 ar
    48   24   25 ar
    49   25   26 ar
    50   25   49 1
    51   26   27 ar
    52   26   50 1
    53   27   28 ar
    54   27   51 1
@<TRIPOS>MOLECULE
ZINC66057357
   39    40     0     0     0
SMALL
USER_CHARGES

@<TRIPOS>ATOM
      1 C1         -1.1336    3.9182    0.8853 C.ar      1 <0>         0.0392
      2 C2         -0.1157    4.2917    0.0064 C.ar      1 <0>        -0.1197
      3 C3         -0.3183    5.3548   -0.8751 C.ar      1 <0>         0.0134
      4 C4         -1.5219    6.0291   -0.8725 C.ar      1 <0>        -0.0515
      5 C5         -2.5266    5.6540    0.0016 C.ar      1 <0>         0.0238
      6 C6         -2.3324    4.6008    0.8776 C.ar      1 <0>        -0.0481
      7 N1         -3.4132    4.2057    1.8086 N.pl3     1 <0>         0.0290
      8 O1         -3.2448    3.2857    2.5747 O.2       1 <0>        -0.1279
      9 O2         -4.4643    4.8031    1.8030 O.3       1 <0>        -0.1295
     10 N2         -1.7386    7.1567   -1.8066 N.pl3     1 <0>         0.0306
     11 O3         -0.8613    7.4858   -2.5707 O.2       1 <0>        -0.1329
     12 O4         -2.7928    7.7485   -1.8055 O.3       1 <0>        -0.1285
     13 C7          1.1718    3.5649    0.0095 C.2       1 <0>         0.5664
     14 O5          1.1857    2.3537    0.1105 O.2       1 <0>        -0.5035
     15 N3          2.3301    4.2454   -0.0996 N.am      1 <0>        -0.6022
     16 C8          3.6076    3.5321   -0.2327 C.3       1 <0>         0.1112
     17 C9          4.5683    4.0353    0.8492 C.3       1 <0>        -0.1153
     18 C10         4.6858    5.5581    0.7533 C.3       1 <0>        -0.1014
     19 C11         3.3140    6.1933    0.9920 C.3       1 <0>        -0.1287
     20 C12         2.3385    5.7146   -0.0939 C.3       1 <0>         0.0949
     21 C13         5.6564    6.0534    1.7943 C.2       1 <0>         0.5173
     22 O6          6.2005    5.2662    2.5394 O.2       1 <0>        -0.5203
     23 N4          5.9198    7.3712    1.8973 N.am      1 <0>        -0.5787
     24 N5          6.7996    7.8201    2.8409 N.3       1 <0>        -0.6044
     25 H1         -0.9847    3.0936    1.5668 H         1 <0>         0.1831
     26 H2          0.4655    5.6490   -1.5574 H         1 <0>         0.1801
     27 H3         -3.4669    6.1854   -0.0002 H         1 <0>         0.1900
     28 H4          3.4435    2.4619   -0.1066 H         1 <0>         0.1056
     29 H5          4.0330    3.7250   -1.2175 H         1 <0>         0.0816
     30 H6          4.1851    3.7611    1.8321 H         1 <0>         0.0791
     31 H7          5.5499    3.5847    0.7023 H         1 <0>         0.0936
     32 H8          5.0455    5.8329   -0.2382 H         1 <0>         0.1077
     33 H9          2.9426    5.8988    1.9736 H         1 <0>         0.0784
     34 H10         3.4028    7.2787    0.9468 H         1 <0>         0.0847
     35 H11         2.6625    6.0819   -1.0677 H         1 <0>         0.0911
     36 H12         1.3368    6.0849    0.1238 H         1 <0>         0.0847
     37 H13         5.4846    8.0008    1.3014 H         1 <0>         0.4001
     38 H14         6.8948    8.8237    2.7982 H         1 <0>         0.3592
     39 H15         6.5227    7.5221    3.7643 H         1 <0>         0.3478
@<TRIPOS>BOND
     1    1    6 ar
     2    1    2 ar
     3    1   25 1
     4    2    3 ar
     5    2   13 1
     6    3    4 ar
     7    3   26 1
     8    4    5 ar
     9    4   10 1
    10    5    6 ar
    11    5   27 1
    12    6    7 1
    13    7    8 2
    14    7    9 1
    15   10   11 2
    16   10   12 1
    17   13   14 2
    18   13   15 am
    19   15   20 1
    20   15   16 1
    21   16   17 1
    22   16   28 1
    23   16   29 1
    24   17   18 1
    25   17   30 1
    26   17   31 1
    27   18   19 1
    28   18   21 1
    29   18   32 1
    30   19   20 1
    31   19   33 1
    32   19   34 1
    33   20   35 1
    34   20   36 1
    35   21   22 2
    36   21   23 am
    37   23   24 1
    38   23   37 1
    39   24   38 1
    40   24   39 1
@<TRIPOS>MOLECULE
ZINC04552423
   51    54     0     0     0
SMALL
USER_CHARGES
3-hydroxy-16-(hydroxymethylene)-10,13-dimethyl-2,3,4,7,8,9,11,12,14,15-decahydro-1H-cyclopenta[a]phenanthren-17-one
@<TRIPOS>ATOM
      1 C1         -2.4386   -2.4571    3.4818 C.3       1 <0>        -0.1429
      2 C2         -1.6445   -2.4426    2.1788 C.3       1 <0>        -0.0077
      3 C3         -2.4737   -3.1058    1.0767 C.3       1 <0>        -0.1001
      4 C4         -2.6405   -4.6002    1.3322 C.3       1 <0>        -0.1120
      5 C5         -1.2799   -5.2932    1.3997 C.3       1 <0>         0.1087
      6 H1         -1.4237   -6.3638    1.5490 H         1 <0>         0.0532
      7 C6         -0.4761   -4.7204    2.5714 C.3       1 <0>        -0.1210
      8 C7         -0.3663   -3.2181    2.3727 C.2       1 <0>        -0.0941
      9 C8          0.8258   -2.6927    2.3656 C.2       1 <0>        -0.1616
     10 C9          1.0894   -1.2179    2.1861 C.3       1 <0>        -0.0786
     11 C10        -0.1707   -0.4813    2.6300 C.3       1 <0>        -0.0653
     12 H2         -0.3610   -0.7666    3.6844 H         1 <0>         0.0698
     13 C11        -1.3372   -1.0063    1.7850 C.3       1 <0>        -0.0740
     14 H3         -1.0163   -1.0565    0.7399 H         1 <0>         0.0745
     15 C12        -2.5204   -0.0595    1.8835 C.3       1 <0>        -0.1047
     16 C13        -2.2030    1.2750    1.1836 C.3       1 <0>        -0.1002
     17 C14        -0.7296    1.5798    1.2682 C.3       1 <0>        -0.1029
     18 C15        -0.1136    1.0074    2.5628 C.3       1 <0>        -0.0668
     19 H4         -0.6593    1.4269    3.4392 H         1 <0>         0.0744
     20 C16         1.2667    1.6833    2.5088 C.3       1 <0>        -0.0537
     21 C17         0.8797    3.1016    2.0817 C.2       1 <0>        -0.3124
     22 C18         1.6080    4.2149    2.3086 C.2       1 <0>         0.1500
     23 O1          2.7826    4.1296    2.9614 O.3       1 <0>        -0.4571
     24 C19        -0.3704    3.0460    1.4076 C.2       1 <0>         0.4160
     25 O2         -1.0337    3.9778    1.0143 O.2       1 <0>        -0.4616
     26 C20        -0.0127    1.0858    0.0080 C.3       1 <0>        -0.1419
     27 O3         -0.5670   -5.0760    0.1802 O.3       1 <0>        -0.5598
     28 H5         -1.8468   -1.9972    4.2732 H         1 <0>         0.0553
     29 H6         -3.3648   -1.8979    3.3491 H         1 <0>         0.0598
     30 H7         -2.6716   -3.4866    3.7538 H         1 <0>         0.0541
     31 H8         -1.9778   -2.9535    0.1149 H         1 <0>         0.0699
     32 H9         -3.4590   -2.6336    1.0372 H         1 <0>         0.0626
     33 H10        -3.2180   -5.0384    0.5103 H         1 <0>         0.0665
     34 H11        -3.1847   -4.7695    2.2598 H         1 <0>         0.0759
     35 H12         0.5200   -5.1622    2.5816 H         1 <0>         0.0687
     36 H13        -0.9833   -4.9385    3.5085 H         1 <0>         0.0800
     37 H14         1.6756   -3.3459    2.4949 H         1 <0>         0.1004
     38 H15         1.3055   -1.0191    1.1399 H         1 <0>         0.0761
     39 H16         1.9346   -0.9241    2.8061 H         1 <0>         0.0719
     40 H17        -3.3968   -0.5105    1.4089 H         1 <0>         0.0657
     41 H18        -2.7573    0.1441    2.9315 H         1 <0>         0.0625
     42 H19        -2.7746    2.0804    1.6617 H         1 <0>         0.0653
     43 H20        -2.5097    1.2182    0.1324 H         1 <0>         0.0669
     44 H21         1.7233    1.6972    3.5010 H         1 <0>         0.0708
     45 H22         1.9270    1.2133    1.7910 H         1 <0>         0.0816
     46 H23         1.2488    5.1743    1.9665 H         1 <0>         0.1385
     47 H24         3.1860    5.0410    3.0421 H         1 <0>         0.4082
     48 H25         0.0281   -0.0034    0.0166 H         1 <0>         0.0764
     49 H26         1.0004    1.4872   -0.0146 H         1 <0>         0.0597
     50 H27        -0.5565    1.4221   -0.8748 H         1 <0>         0.0602
     51 H28         0.3064   -5.4902    0.1561 H         1 <0>         0.3747
@<TRIPOS>BOND
     1    1    2 1
     2    1   28 1
     3    1   29 1
     4    1   30 1
     5    2    8 1
     6    2   13 1
     7    2    3 1
     8    3    4 1
     9    3   31 1
    10    3   32 1
    11    4    5 1
    12    4   33 1
    13    4   34 1
    14    5    6 1
    15    5    7 1
    16    5   27 1
    17    7    8 1
    18    7   35 1
    19    7   36 1
    20    8    9 2
    21    9   10 1
    22    9   37 1
    23   10   11 1
    24   10   38 1
    25   10   39 1
    26   11   12 1
    27   11   18 1
    28   11   13 1
    29   13   14 1
    30   13   15 1
    31   15   16 1
    32   15   40 1
    33   15   41 1
    34   16   17 1
    35   16   42 1
    36   16   43 1
    37   17   24 1
    38   17   18 1
    39   17   26 1
    40   18   19 1
    41   18   20 1
    42   20   21 1
    43   20   44 1
    44   20   45 1
    45   21   22 2
    46   21   24 1
    47   22   23 1
    48   22   46 1
    49   23   47 1
    50   24   25 2
    51   26   48 1
    52   26   49 1
    53   26   50 1
    54   27   51 1
@<TRIPOS>MOLECULE
ZINC21814780
   30    31     0     0     0
SMALL
USER_CHARGES
4-[(5-bromo-2-pyridyl)amino]cyclohexan-1-ol
@<TRIPOS>ATOM
      1 C1          2.3929    0.0117   -0.0207 C.ar      1 <0>        -0.0024
      2 C2          2.3415    1.3941   -0.0128 C.ar      1 <0>        -0.2413
      3 C3          1.1020    2.0250    0.0024 C.ar      1 <0>         0.4224
      4 N1         -0.0158    1.3153    0.0093 N.ar      1 <0>        -0.5394
      5 C4          0.0021   -0.0041    0.0020 C.ar      1 <0>         0.1891
      6 C5          1.1976   -0.6961   -0.0131 C.ar      1 <0>        -0.2135
      7 Br1         1.2069   -2.5870   -0.0240 Br        1 <0>        -0.0444
      8 N2          1.0361    3.4139    0.0105 N.pl3     1 <0>        -0.7232
      9 C6          2.2687    4.2058    0.0030 C.3       1 <0>         0.1531
     10 C7          2.7794    4.3679    1.4361 C.3       1 <0>        -0.1337
     11 C8          1.7196    5.0820    2.2775 C.3       1 <0>        -0.1096
     12 C9          1.4364    6.4608    1.6779 C.3       1 <0>         0.1151
     13 C10         0.9256    6.2986    0.2448 C.3       1 <0>        -0.1507
     14 C11         1.9854    5.5846   -0.5966 C.3       1 <0>        -0.1241
     15 O1          0.4465    7.1277    2.4638 O.3       1 <0>        -0.6019
     16 H1          3.3409   -0.5056   -0.0322 H         1 <0>         0.1409
     17 H2          3.2515    1.9756   -0.0184 H         1 <0>         0.1386
     18 H3         -0.9298   -0.5499    0.0083 H         1 <0>         0.1629
     19 H4          0.0585    3.9181    0.0225 H         1 <0>         0.4255
     20 H5          3.0012    3.6600   -0.6098 H         1 <0>         0.0859
     21 H6          2.9830    3.3765    1.8671 H         1 <0>         0.0738
     22 H7          3.7049    4.9624    1.4305 H         1 <0>         0.0771
     23 H8          0.7941    4.4875    2.2831 H         1 <0>         0.0726
     24 H9          2.0868    5.1986    3.3078 H         1 <0>         0.0694
     25 H10         2.3295    7.1020    1.7128 H         1 <0>         0.0513
     26 H11         0.0002    5.7040    0.2505 H         1 <0>         0.0706
     27 H12         0.7218    7.2899   -0.1863 H         1 <0>         0.0705
     28 H13         2.9109    6.1791   -0.6022 H         1 <0>         0.0828
     29 H14         1.6182    5.4680   -1.6269 H         1 <0>         0.0756
     30 H15         0.1117    8.1378    2.1851 H         1 <0>         0.4070
@<TRIPOS>BOND
     1    1    6 ar
     2    1    2 ar
     3    1   16 1
     4    2    3 ar
     5    2   17 1
     6    3    4 ar
     7    3    8 1
     8    4    5 ar
     9    5    6 ar
    10    5   18 1
    11    6    7 1
    12    8    9 1
    13    8   19 1
    14    9   14 1
    15    9   10 1
    16    9   20 1
    17   10   11 1
    18   10   21 1
    19   10   22 1
    20   11   12 1
    21   11   23 1
    22   11   24 1
    23   12   13 1
    24   12   15 1
    25   12   25 1
    26   13   14 1
    27   13   26 1
    28   13   27 1
    29   14   28 1
    30   14   29 1
    31   15   30 1
@<TRIPOS>MOLECULE
ZINC36683534
   36    39     0     0     0
SMALL
USER_CHARGES

@<TRIPOS>ATOM
      1 C1         -0.0166    1.3766    0.0096 C.ar      1 <0>        -0.0629
      2 C2          1.1704    2.0849    0.0021 C.ar      1 <0>        -0.1550
      3 C3          2.3824    1.4155   -0.0131 C.ar      1 <0>        -0.0553
      4 C4          2.4080    0.0359   -0.0208 C.ar      1 <0>        -0.1916
      5 C5          1.2154   -0.6794   -0.0128 C.ar      1 <0>         0.2445
      6 C6          0.0021   -0.0041    0.0020 C.ar      1 <0>        -0.1956
      7 N1          1.2380   -2.0759   -0.0211 N.pl3     1 <0>        -0.8763
      8 C7          3.8432   -0.4256   -0.0370 C.3       1 <0>         0.1741
      9 N2          4.6951    0.7679   -0.0387 N.pl3     1 <0>        -0.6298
     10 C8          3.8000    1.9293   -0.0239 C.3       1 <0>         0.1563
     11 C9          6.0941    0.7936   -0.0512 C.ar      1 <0>         0.2508
     12 C10         6.8107   -0.3957   -0.0694 C.ar      1 <0>        -0.1875
     13 C11         8.1919   -0.3706   -0.0804 C.ar      1 <0>        -0.0613
     14 C12         8.8670    0.8410   -0.0745 C.ar      1 <0>        -0.0077
     15 C13         8.1527    2.0330   -0.0587 C.ar      1 <0>         0.1017
     16 C14         6.7662    2.0077   -0.0512 C.ar      1 <0>        -0.1908
     17 O1          8.7976    3.2316   -0.0607 O.3       1 <0>        -0.3075
     18 C15        10.1825    3.2182    0.3021 C.3       1 <0>         0.0211
     19 C16        10.8666    2.0720   -0.4551 C.3       1 <0>         0.0215
     20 O2         10.2293    0.8454   -0.0822 O.3       1 <0>        -0.3095
     21 H1         -0.9593    1.9034    0.0260 H         1 <0>         0.1284
     22 H2          1.1524    3.1648    0.0077 H         1 <0>         0.1228
     23 H3         -0.9252   -0.5577    0.0080 H         1 <0>         0.1261
     24 H4          2.0857   -2.5472   -0.0324 H         1 <0>         0.3987
     25 H5          0.4060   -2.5744   -0.0155 H         1 <0>         0.4004
     26 H6          4.0486   -1.0249    0.8500 H         1 <0>         0.0677
     27 H7          4.0315   -1.0153   -0.9341 H         1 <0>         0.0677
     28 H8          3.9666    2.5354   -0.9144 H         1 <0>         0.0773
     29 H9          3.9836    2.5258    0.8697 H         1 <0>         0.0773
     30 H10         6.2880   -1.3408   -0.0747 H         1 <0>         0.1295
     31 H11         8.7474   -1.2966   -0.0940 H         1 <0>         0.1361
     32 H12         6.2094    2.9330   -0.0416 H         1 <0>         0.1329
     33 H13        10.6436    4.1670    0.0275 H         1 <0>         0.1218
     34 H14        10.2797    3.0589    1.3760 H         1 <0>         0.0781
     35 H15        10.7638    2.2279   -1.5290 H         1 <0>         0.0753
     36 H16        11.9227    2.0336   -0.1881 H         1 <0>         0.1206
@<TRIPOS>BOND
     1    1    6 ar
     2    1    2 ar
     3    1   21 1
     4    2    3 ar
     5    2   22 1
     6    3   10 1
     7    3    4 ar
     8    4    5 ar
     9    4    8 1
    10    5    6 ar
    11    5    7 1
    12    6   23 1
    13    7   24 1
    14    7   25 1
    15    8    9 1
    16    8   26 1
    17    8   27 1
    18    9   10 1
    19    9   11 1
    20   10   28 1
    21   10   29 1
    22   11   16 ar
    23   11   12 ar
    24   12   13 ar
    25   12   30 1
    26   13   14 ar
    27   13   31 1
    28   14   20 1
    29   14   15 ar
    30   15   16 ar
    31   15   17 1
    32   16   32 1
    33   17   18 1
    34   18   19 1
    35   18   33 1
    36   18   34 1
    37   19   20 1
    38   19   35 1
    39   19   36 1
@<TRIPOS>MOLECULE
ZINC40333719
   35    37     0     0     0
SMALL
USER_CHARGES

@<TRIPOS>ATOM
      1 C1         -0.0057    1.2660    0.0466 C.2       1 <0>        -0.1530
      2 C2          1.1777    1.9798    0.0232 C.2       1 <0>        -0.1469
      3 C3          2.3526    1.3042    0.0024 C.2       1 <0>        -0.1431
      4 S1          1.8023   -0.3941    0.0156 S.3       1 <0>         0.0400
      5 C4          0.0436   -0.0886    0.0480 C.2       1 <0>        -0.1760
      6 C5          3.7586    1.8460   -0.0253 C.3       1 <0>         0.2230
      7 H1          3.7500    2.8813   -0.3661 H         1 <0>         0.0993
      8 C6          4.3810    1.7626    1.3844 C.3       1 <0>        -0.1239
      9 C7          5.8511    1.3618    1.0920 C.3       1 <0>        -0.1337
     10 C8          5.6809    0.4252   -0.1301 C.3       1 <0>         0.0923
     11 N1          4.5909    1.0312   -0.9223 N.am      1 <0>        -0.6116
     12 C9          4.3903    0.8649   -2.2447 C.2       1 <0>         0.5770
     13 O1          3.4128    1.3533   -2.7774 O.2       1 <0>        -0.5046
     14 C10         5.3583    0.0892   -3.0467 C.ar      1 <0>        -0.1148
     15 C11         5.9908   -1.0264   -2.4949 C.ar      1 <0>        -0.1480
     16 C12         6.8974   -1.7488   -3.2532 C.ar      1 <0>         0.2026
     17 C13         7.1761   -1.3633   -4.5599 C.ar      1 <0>        -0.1450
     18 C14         6.5518   -0.2601   -5.1084 C.ar      1 <0>        -0.1090
     19 C15         5.6403    0.4659   -4.3631 C.ar      1 <0>         0.0943
     20 F1          5.0272    1.5409   -4.9050 F         1 <0>        -0.1264
     21 N2          7.5334   -2.8667   -2.7038 N.pl3     1 <0>        -0.8743
     22 H2         -0.9554    1.7798    0.0679 H         1 <0>         0.1336
     23 H3          1.1664    3.0598    0.0212 H         1 <0>         0.1318
     24 H4         -0.7699   -0.7988    0.0648 H         1 <0>         0.1846
     25 H5          4.3372    2.7308    1.8832 H         1 <0>         0.0917
     26 H6          3.8840    0.9975    1.9808 H         1 <0>         0.0838
     27 H7          6.4504    2.2351    0.8345 H         1 <0>         0.0823
     28 H8          6.2856    0.8270    1.9366 H         1 <0>         0.0910
     29 H9          6.6003    0.3933   -0.7146 H         1 <0>         0.0878
     30 H10         5.4026   -0.5770    0.1958 H         1 <0>         0.0730
     31 H11         5.7742   -1.3251   -1.4799 H         1 <0>         0.1392
     32 H12         7.8837   -1.9287   -5.1481 H         1 <0>         0.1363
     33 H13         6.7730    0.0342   -6.1238 H         1 <0>         0.1436
     34 H14         7.3396   -3.1358   -1.7923 H         1 <0>         0.4008
     35 H15         8.1683   -3.3729   -3.2344 H         1 <0>         0.4023
@<TRIPOS>BOND
     1    1    5 2
     2    1    2 1
     3    1   22 1
     4    2    3 2
     5    2   23 1
     6    3    4 1
     7    3    6 1
     8    4    5 1
     9    5   24 1
    10    6    7 1
    11    6   11 1
    12    6    8 1
    13    8    9 1
    14    8   25 1
    15    8   26 1
    16    9   10 1
    17    9   27 1
    18    9   28 1
    19   10   11 1
    20   10   29 1
    21   10   30 1
    22   11   12 am
    23   12   13 2
    24   12   14 1
    25   14   19 ar
    26   14   15 ar
    27   15   16 ar
    28   15   31 1
    29   16   17 ar
    30   16   21 1
    31   17   18 ar
    32   17   32 1
    33   18   19 ar
    34   18   33 1
    35   19   20 1
    36   21   34 1
    37   21   35 1
@<TRIPOS>MOLECULE
ZINC44963549
   43    46     0     0     0
SMALL
USER_CHARGES

@<TRIPOS>ATOM
      1 C1         -0.0187    1.5258    0.0104 C.3       1 <0>        -0.1336
      2 C2          0.0021   -0.0041    0.0020 C.3       1 <0>        -0.1084
      3 C3         -1.4091   -0.5829   -0.1119 C.3       1 <0>        -0.1012
      4 C4         -2.1824   -0.4304    1.1968 C.3       1 <0>        -0.1098
      5 C5         -1.4342   -1.2062    2.2827 C.3       1 <0>        -0.0421
      6 H1         -1.2923   -2.2363    1.9561 H         1 <0>         0.0883
      7 C6         -2.1993   -1.1964    3.5760 C.ar      1 <0>        -0.0635
      8 C7         -3.5797   -1.3339    3.5225 C.ar      1 <0>        -0.1100
      9 C8         -4.3321   -1.3422    4.6789 C.ar      1 <0>        -0.1327
     10 C9         -3.7050   -1.2132    5.9078 C.ar      1 <0>         0.0786
     11 C10        -2.3249   -1.0714    5.9635 C.ar      1 <0>         0.0768
     12 C11        -1.5686   -1.0576    4.7945 C.ar      1 <0>        -0.0830
     13 C12        -0.0798   -0.8742    4.9274 C.3       1 <0>        -0.0739
     14 C13         0.6419   -1.2525    3.6347 C.3       1 <0>        -0.1116
     15 C14        -0.0722   -0.5488    2.4822 C.3       1 <0>        -0.0717
     16 H2         -0.2306    0.4960    2.7494 H         1 <0>         0.0742
     17 C15         0.7381   -0.5672    1.2332 C.3       1 <0>        -0.0716
     18 H3          1.6603   -0.0088    1.3936 H         1 <0>         0.0808
     19 C16         1.0940   -2.0016    0.7976 C.3       1 <0>        -0.1175
     20 C17         1.4803   -1.8280   -0.6895 C.3       1 <0>        -0.1856
     21 C18         0.8184   -0.5512   -1.1685 C.2       1 <0>         0.3717
     22 O1          0.9175   -0.0594   -2.2670 O.2       1 <0>        -0.4381
     23 O2         -1.7073   -0.9451    7.1686 O.3       1 <0>        -0.4851
     24 O3         -4.4376   -1.2249    7.0535 O.3       1 <0>        -0.4883
     25 H4          1.0039    1.9031    0.0027 H         1 <0>         0.0579
     26 H5         -0.5459    1.8868   -0.8726 H         1 <0>         0.0636
     27 H6         -0.5289    1.8773    0.9072 H         1 <0>         0.0661
     28 H7         -1.9450   -0.0620   -0.9054 H         1 <0>         0.0708
     29 H8         -1.3410   -1.6411   -0.3645 H         1 <0>         0.0675
     30 H9         -2.2397    0.6233    1.4701 H         1 <0>         0.0717
     31 H10        -3.1873   -0.8363    1.0803 H         1 <0>         0.0734
     32 H11        -4.0697   -1.4358    2.5655 H         1 <0>         0.1311
     33 H12        -5.4056   -1.4486    4.6266 H         1 <0>         0.1328
     34 H13         0.1320    0.1689    5.1625 H         1 <0>         0.0798
     35 H14         0.2866   -1.5036    5.7384 H         1 <0>         0.0748
     36 H15         1.6797   -0.9228    3.6831 H         1 <0>         0.0728
     37 H16         0.6051   -2.3331    3.4961 H         1 <0>         0.0695
     38 H17         1.9381   -2.3811    1.3734 H         1 <0>         0.0792
     39 H18         0.2310   -2.6600    0.8974 H         1 <0>         0.0777
     40 H19         2.5628   -1.7455   -0.7861 H         1 <0>         0.0988
     41 H20         1.1176   -2.6762   -1.2701 H         1 <0>         0.0983
     42 H21        -1.4404   -1.7863    7.5638 H         1 <0>         0.3847
     43 H22        -4.5615   -2.1060    7.4322 H         1 <0>         0.3867
@<TRIPOS>BOND
     1    1    2 1
     2    1   25 1
     3    1   26 1
     4    1   27 1
     5    2   17 1
     6    2   21 1
     7    2    3 1
     8    3    4 1
     9    3   28 1
    10    3   29 1
    11    4    5 1
    12    4   30 1
    13    4   31 1
    14    5    6 1
    15    5   15 1
    16    5    7 1
    17    7   12 ar
    18    7    8 ar
    19    8    9 ar
    20    8   32 1
    21    9   10 ar
    22    9   33 1
    23   10   11 ar
    24   10   24 1
    25   11   12 ar
    26   11   23 1
    27   12   13 1
    28   13   14 1
    29   13   34 1
    30   13   35 1
    31   14   15 1
    32   14   36 1
    33   14   37 1
    34   15   16 1
    35   15   17 1
    36   17   18 1
    37   17   19 1
    38   19   20 1
    39   19   38 1
    40   19   39 1
    41   20   21 1
    42   20   40 1
    43   20   41 1
    44   21   22 2
    45   23   42 1
    46   24   43 1
@<TRIPOS>MOLECULE
ZINC09577388
   36    39     0     0     0
SMALL
USER_CHARGES
8-norbornan-2-yl-3,3-dioxo-3$l^{6}-thia-6,8-diazabicyclo[3.3.0]octane-7-thione
@<TRIPOS>ATOM
      1 C1         -3.2628    0.2116   -0.5351 C.3       1 <0>        -0.1247
      2 C2         -2.0015   -0.5293   -1.0350 C.3       1 <0>        -0.1192
      3 C3         -1.3564    0.4439   -2.0684 C.3       1 <0>        -0.1245
      4 H1         -0.6511   -0.0038   -2.7687 H         1 <0>         0.1130
      5 C4         -2.6275    1.1153   -2.6983 C.3       1 <0>        -0.1236
      6 C5         -3.2617    1.5839   -1.3395 C.3       1 <0>        -0.1053
      7 H2         -4.2093    2.1197   -1.3951 H         1 <0>         0.1052
      8 C6         -2.0670    2.3738   -0.7231 C.3       1 <0>        -0.1180
      9 C7         -0.8064    1.6207   -1.2059 C.3       1 <0>         0.1657
     10 H3         -0.2435    1.2373   -0.3548 H         1 <0>         0.1006
     11 N1          0.0356    2.5024   -2.0182 N.pl3     1 <0>        -0.5613
     12 C8          0.4463    2.2491   -3.4083 C.3       1 <0>         0.1075
     13 H4         -0.4303    2.2029   -4.0544 H         1 <0>         0.1337
     14 C9          1.2126    0.9104   -3.4720 C.3       1 <0>        -0.5961
     15 S1          2.9583    1.4806   -3.2899 S.o2      1 <0>         2.3646
     16 O1          3.2439    1.6898   -1.9137 O.2       1 <0>        -0.9043
     17 O2          3.8085    0.6495   -4.0681 O.2       1 <0>        -0.9214
     18 C10         2.7568    3.1034   -4.1300 C.3       1 <0>        -0.5934
     19 C11         1.3000    3.4677   -3.7719 C.3       1 <0>         0.1144
     20 H5          0.8404    4.0200   -4.5916 H         1 <0>         0.1352
     21 N2          1.2956    4.2849   -2.5481 N.pl3     1 <0>        -0.6806
     22 C12         0.5607    3.6670   -1.6132 C.2       1 <0>         0.5571
     23 S2          0.3151    4.3070   -0.0445 S.2       1 <0>        -0.6049
     24 H6         -4.1591   -0.3619   -0.7715 H         1 <0>         0.0660
     25 H7         -3.1985    0.3895    0.5384 H         1 <0>         0.0712
     26 H8         -2.2778   -1.4670   -1.5172 H         1 <0>         0.0739
     27 H9         -1.3155   -0.7154   -0.2087 H         1 <0>         0.0719
     28 H10        -2.3694    1.9582   -3.3393 H         1 <0>         0.0665
     29 H11        -3.2578    0.3921   -3.2158 H         1 <0>         0.0771
     30 H12        -2.1240    2.3607    0.3653 H         1 <0>         0.0875
     31 H13        -2.0603    3.4002   -1.0902 H         1 <0>         0.0787
     32 H14         0.9267    0.2562   -2.6484 H         1 <0>         0.1609
     33 H15         1.0596    0.4172   -4.4319 H         1 <0>         0.1620
     34 H16         2.8829    3.0094   -5.2086 H         1 <0>         0.1609
     35 H17         3.4550    3.8321   -3.7181 H         1 <0>         0.1543
     36 H18         1.7509    5.1340   -2.4363 H         1 <0>         0.4496
@<TRIPOS>BOND
     1    1    6 1
     2    1    2 1
     3    1   24 1
     4    1   25 1
     5    2    3 1
     6    2   26 1
     7    2   27 1
     8    3    4 1
     9    3    9 1
    10    3    5 1
    11    5    6 1
    12    5   28 1
    13    5   29 1
    14    6    7 1
    15    6    8 1
    16    8    9 1
    17    8   30 1
    18    8   31 1
    19    9   10 1
    20    9   11 1
    21   11   22 1
    22   11   12 1
    23   12   13 1
    24   12   19 1
    25   12   14 1
    26   14   15 1
    27   14   32 1
    28   14   33 1
    29   15   16 2
    30   15   17 2
    31   15   18 1
    32   18   19 1
    33   18   34 1
    34   18   35 1
    35   19   20 1
    36   19   21 1
    37   21   22 1
    38   21   36 1
    39   22   23 2
@<TRIPOS>MOLECULE
ZINC01714077
   37    39     0     0     0
SMALL
USER_CHARGES
(3R,3aR)-3-(3-hydroxy-4-methyl-phenyl)-6-oxo-3,3a,4,5-tetrahydro-1H-isoindole-2-carbaldehyde
@<TRIPOS>ATOM
      1 C1          1.2380   -2.1856   -0.0220 C.3       1 <0>        -0.1036
      2 C2          1.2139   -0.6788   -0.0132 C.ar      1 <0>        -0.1250
      3 C3          2.3989    0.0317   -0.0207 C.ar      1 <0>        -0.0791
      4 C4          2.3774    1.4139   -0.0130 C.ar      1 <0>        -0.1434
      5 C5          1.1706    2.0890    0.0021 C.ar      1 <0>        -0.0547
      6 C6         -0.0167    1.3833    0.0096 C.ar      1 <0>        -0.1955
      7 C7          0.0021   -0.0041    0.0020 C.ar      1 <0>         0.1586
      8 O1         -1.1648   -0.7006    0.0090 O.3       1 <0>        -0.5065
      9 C8          1.1509    3.5958    0.0099 C.3       1 <0>         0.1824
     10 H1          0.1826    3.9287   -0.3919 H         1 <0>         0.0922
     11 C9          1.4082    4.1154    1.4330 C.3       1 <0>        -0.0767
     12 H2          1.8136    3.3379    2.0972 H         1 <0>         0.1175
     13 C10         0.1101    4.6367    2.0554 C.3       1 <0>        -0.1100
     14 C11         0.4507    5.3787    3.3554 C.3       1 <0>        -0.1678
     15 C12         1.4406    6.4854    3.1003 C.2       1 <0>         0.3879
     16 O2          1.4535    7.4648    3.8163 O.2       1 <0>        -0.4528
     17 C13         2.3902    6.3785    1.9854 C.2       1 <0>        -0.1962
     18 C14         2.3490    5.2925    1.2266 C.2       1 <0>        -0.0588
     19 C15         3.1286    4.9410   -0.0135 C.3       1 <0>         0.1263
     20 N1          2.2328    4.1158   -0.8415 N.am      1 <0>        -0.6198
     21 C16         2.3798    3.8760   -2.1595 C.2       1 <0>         0.5065
     22 O3          1.5777    3.1771   -2.7419 O.2       1 <0>        -0.5314
     23 H3          2.2808   -2.5356   -0.0338 H         1 <0>         0.0627
     24 H4          0.7170   -2.5554   -0.9174 H         1 <0>         0.0673
     25 H5          0.7338   -2.5656    0.8788 H         1 <0>         0.0672
     26 H6          3.3426   -0.4933   -0.0321 H         1 <0>         0.1269
     27 H7          3.3047    1.9675   -0.0189 H         1 <0>         0.1168
     28 H8         -0.9590    1.9110    0.0170 H         1 <0>         0.1249
     29 H9         -2.1252   -0.1645    0.0211 H         1 <0>         0.4321
     30 H10        -0.3840    5.3230    1.3520 H         1 <0>         0.0757
     31 H11        -0.5582    3.7904    2.2724 H         1 <0>         0.0858
     32 H12        -0.4657    5.8152    3.7793 H         1 <0>         0.1015
     33 H13         0.8882    4.6728    4.0767 H         1 <0>         0.1058
     34 H14         3.1230    7.1708    1.7725 H         1 <0>         0.1492
     35 H15         3.4160    5.8633   -0.5396 H         1 <0>         0.0963
     36 H16         4.0334    4.3825    0.2682 H         1 <0>         0.0952
     37 H17         3.2273    4.3141   -2.7071 H         1 <0>         0.1425
@<TRIPOS>BOND
     1    1    2 1
     2    1   23 1
     3    1   24 1
     4    1   25 1
     5    2    7 ar
     6    2    3 ar
     7    3    4 ar
     8    3   26 1
     9    4    5 ar
    10    4   27 1
    11    5    6 ar
    12    5    9 1
    13    6    7 ar
    14    6   28 1
    15    7    8 1
    16    8   29 1
    17    9   10 1
    18    9   20 1
    19    9   11 1
    20   11   12 1
    21   11   18 1
    22   11   13 1
    23   13   14 1
    24   13   30 1
    25   13   31 1
    26   14   15 1
    27   14   32 1
    28   14   33 1
    29   15   16 2
    30   15   17 1
    31   17   18 2
    32   17   34 1
    33   18   19 1
    34   19   20 1
    35   19   35 1
    36   19   36 1
    37   20   21 am
    38   21   22 2
    39   21   37 1
@<TRIPOS>MOLECULE
ZINC40879653
   28    30     0     0     0
SMALL
USER_CHARGES

@<TRIPOS>ATOM
      1 C1         -0.0165    1.3620    0.0095 C.ar      1 <0>        -0.1210
      2 C2          1.1674    2.0858    0.0021 C.ar      1 <0>        -0.1044
      3 C3          2.3835    1.4361   -0.0130 C.ar      1 <0>        -0.0910
      4 C4          2.4216    0.0489   -0.0208 C.ar      1 <0>         0.0570
      5 C5          1.2228   -0.6838   -0.0133 C.ar      1 <0>         0.0412
      6 C6          0.0021   -0.0041    0.0020 C.ar      1 <0>        -0.0664
      7 N1          1.5614   -1.9992   -0.0241 N.2       1 <0>        -0.4735
      8 C7          2.8566   -2.1189   -0.0374 C.2       1 <0>         0.2664
      9 N2          3.4402   -0.8865   -0.0361 N.pl3     1 <0>        -0.4385
     10 C8          4.8110   -0.6188   -0.0483 C.ar      1 <0>         0.3570
     11 C9          5.7179   -1.6718   -0.0687 C.ar      1 <0>        -0.1684
     12 C10         7.0733   -1.3926   -0.0807 C.ar      1 <0>        -0.0164
     13 C11         7.4758   -0.0641   -0.0717 C.ar      1 <0>        -0.1684
     14 C12         6.5193    0.9318   -0.0513 C.ar      1 <0>         0.1378
     15 N3          5.2340    0.6350   -0.0457 N.ar      1 <0>        -0.4979
     16 C13         8.0891   -2.5055   -0.1024 C.3       1 <0>         0.1143
     17 O1          8.3957   -2.8443   -1.4564 O.3       1 <0>        -0.5649
     18 H1         -0.9619    1.8837    0.0259 H         1 <0>         0.1324
     19 H2          1.1361    3.1654    0.0079 H         1 <0>         0.1328
     20 H3          3.3020    2.0041   -0.0191 H         1 <0>         0.1399
     21 H4         -0.9252   -0.5576    0.0083 H         1 <0>         0.1322
     22 H5          3.3914   -3.0571   -0.0473 H         1 <0>         0.2193
     23 H6          5.3696   -2.6940   -0.0749 H         1 <0>         0.1437
     24 H7          8.5259    0.1880   -0.0803 H         1 <0>         0.1457
     25 H8          6.8275    1.9669   -0.0439 H         1 <0>         0.1713
     26 H9          8.9969   -2.1788    0.4048 H         1 <0>         0.0667
     27 H10         7.6823   -3.3788    0.4074 H         1 <0>         0.0642
     28 H11         9.0447   -3.5554   -1.5467 H         1 <0>         0.3887
@<TRIPOS>BOND
     1    1    6 ar
     2    1    2 ar
     3    1   18 1
     4    2    3 ar
     5    2   19 1
     6    3    4 ar
     7    3   20 1
     8    4    9 1
     9    4    5 ar
    10    5    6 ar
    11    5    7 1
    12    6   21 1
    13    7    8 2
    14    8    9 1
    15    8   22 1
    16    9   10 1
    17   10   15 ar
    18   10   11 ar
    19   11   12 ar
    20   11   23 1
    21   12   13 ar
    22   12   16 1
    23   13   14 ar
    24   13   24 1
    25   14   15 ar
    26   14   25 1
    27   16   17 1
    28   16   26 1
    29   16   27 1
    30   17   28 1
@<TRIPOS>MOLECULE
ZINC52831401
   30    32     0     0     0
SMALL
USER_CHARGES

@<TRIPOS>ATOM
      1 C1         -0.0167    1.3768    0.0096 C.ar      1 <0>        -0.1528
      2 C2          1.1716    2.0842    0.0021 C.ar      1 <0>        -0.0773
      3 C3          2.3750    1.4095   -0.0110 C.ar      1 <0>        -0.1503
      4 C4          2.3976    0.0182   -0.0179 C.ar      1 <0>         0.1434
      5 C5          1.2071   -0.6868   -0.0139 C.ar      1 <0>        -0.1887
      6 C6          0.0021   -0.0041    0.0020 C.ar      1 <0>        -0.0766
      7 C7          1.1867   -2.1943   -0.0325 C.3       1 <0>         0.2007
      8 H1          0.9541   -2.5414   -1.0392 H         1 <0>         0.0953
      9 C8          2.5558   -2.7338    0.3887 C.3       1 <0>        -0.1673
     10 C9          3.6338   -1.9865   -0.4067 C.3       1 <0>         0.0665
     11 O1          3.6019   -0.6103   -0.0255 O.3       1 <0>        -0.3136
     12 N1          0.1650   -2.6795    0.8986 N.pl3     1 <0>        -0.7049
     13 C10        -1.1577   -2.7889    0.4841 C.ar      1 <0>         0.3434
     14 C11        -1.5145   -2.4430   -0.8191 C.ar      1 <0>        -0.1865
     15 C12        -2.8456   -2.5705   -1.1826 C.ar      1 <0>        -0.0762
     16 C13        -3.7410   -3.0340   -0.2284 C.ar      1 <0>        -0.0140
     17 N2         -3.3163   -3.3381    0.9815 N.ar      1 <0>        -0.2004
     18 N3         -2.0842   -3.2273    1.3236 N.ar      1 <0>        -0.3065
     19 H2         -0.9590    1.9041    0.0259 H         1 <0>         0.1246
     20 H3          1.1576    3.1641    0.0061 H         1 <0>         0.1314
     21 H4          3.3024    1.9629   -0.0163 H         1 <0>         0.1333
     22 H5         -0.9273   -0.5542    0.0085 H         1 <0>         0.1242
     23 H6          2.7042   -2.5665    1.4555 H         1 <0>         0.0885
     24 H7          2.6128   -3.8005    0.1721 H         1 <0>         0.0964
     25 H8          4.6139   -2.4071   -0.1816 H         1 <0>         0.1172
     26 H9          3.4314   -2.0766   -1.4739 H         1 <0>         0.0699
     27 H10         0.4113   -2.9245    1.8043 H         1 <0>         0.4123
     28 H11        -0.7767   -2.0867   -1.5227 H         1 <0>         0.1462
     29 H12        -3.1766   -2.3163   -2.1786 H         1 <0>         0.1506
     30 H13        -4.7860   -3.1451   -0.4776 H         1 <0>         0.1714
@<TRIPOS>BOND
     1    1    6 ar
     2    1    2 ar
     3    1   19 1
     4    2    3 ar
     5    2   20 1
     6    3    4 ar
     7    3   21 1
     8    4   11 1
     9    4    5 ar
    10    5    6 ar
    11    5    7 1
    12    6   22 1
    13    7    8 1
    14    7    9 1
    15    7   12 1
    16    9   10 1
    17    9   23 1
    18    9   24 1
    19   10   11 1
    20   10   25 1
    21   10   26 1
    22   12   13 1
    23   12   27 1
    24   13   18 ar
    25   13   14 ar
    26   14   15 ar
    27   14   28 1
    28   15   16 ar
    29   15   29 1
    30   16   17 ar
    31   16   30 1
    32   17   18 ar
@<TRIPOS>MOLECULE
ZINC59323010
   38    39     0     0     0
SMALL
USER_CHARGES

@<TRIPOS>ATOM
      1 C1         -0.0272    1.5263    0.0071 C.3       1 <0>        -0.1481
      2 C2         -0.0022   -0.0035    0.0007 C.3       1 <0>        -0.0926
      3 C3         -1.4366   -0.5370    0.0065 C.3       1 <0>        -0.1310
      4 C4         -1.4079   -2.0681   -0.0350 C.3       1 <0>         0.1275
      5 N1         -0.5782   -2.5557    1.0753 N.am      1 <0>        -0.6285
      6 C5          0.7893   -2.0373    1.2159 C.3       1 <0>         0.1114
      7 C6          0.7360   -0.5066    1.2433 C.3       1 <0>        -0.1310
      8 C7         -1.0626   -3.4610    1.9484 C.2       1 <0>         0.7081
      9 O1         -2.2250   -3.8109    1.8792 O.2       1 <0>        -0.5874
     10 N2         -0.2585   -3.9785    2.8982 N.am      1 <0>        -0.7490
     11 C8         -0.7528   -5.0413    3.7770 C.3       1 <0>         0.1486
     12 C9          0.3498   -5.4466    4.7572 C.3       1 <0>        -0.1375
     13 H1          0.7241   -4.5776    5.2983 H         1 <0>         0.0927
     14 C10        -0.1587   -6.5343    5.7422 C.3       1 <0>        -0.1476
     15 C11         1.1642   -7.2671    6.0797 C.3       1 <0>         0.0506
     16 O2          1.9168   -7.2649    4.8561 O.3       1 <0>        -0.3838
     17 C12         1.4975   -6.1730    4.0233 C.3       1 <0>         0.0546
     18 H2          0.9943    1.9064    0.0018 H         1 <0>         0.0558
     19 H3         -0.5530    1.8848   -0.8779 H         1 <0>         0.0568
     20 H4         -0.5409    1.8775    0.9020 H         1 <0>         0.0544
     21 H5          0.5120   -0.3545   -0.8941 H         1 <0>         0.0729
     22 H6         -1.9438   -0.2070    0.9131 H         1 <0>         0.0671
     23 H7         -1.9687   -0.1593   -0.8666 H         1 <0>         0.0769
     24 H8         -2.4214   -2.4555    0.0687 H         1 <0>         0.0948
     25 H9         -0.9827   -2.4001   -0.9821 H         1 <0>         0.0662
     26 H10         1.2255   -2.4044    2.1449 H         1 <0>         0.0746
     27 H11         1.3937   -2.3668    0.3708 H         1 <0>         0.0716
     28 H12         1.7502   -0.1073    1.2505 H         1 <0>         0.0768
     29 H13         0.2083   -0.1769    2.1383 H         1 <0>         0.0676
     30 H14         0.6475   -3.6472    2.9998 H         1 <0>         0.3953
     31 H15        -1.6182   -4.6801    4.3327 H         1 <0>         0.0732
     32 H16        -1.0408   -5.9044    3.1769 H         1 <0>         0.0714
     33 H17        -0.5965   -6.0838    6.6330 H         1 <0>         0.0890
     34 H18        -0.8663   -7.2053    5.2553 H         1 <0>         0.0852
     35 H19         1.7062   -6.7302    6.8582 H         1 <0>         0.0627
     36 H20         0.9599   -8.2899    6.3964 H         1 <0>         0.0889
     37 H21         1.1415   -6.5543    3.0662 H         1 <0>         0.0738
     38 H22         2.3277   -5.4852    3.8630 H         1 <0>         0.0681
@<TRIPOS>BOND
     1    1    2 1
     2    1   18 1
     3    1   19 1
     4    1   20 1
     5    2    7 1
     6    2    3 1
     7    2   21 1
     8    3    4 1
     9    3   22 1
    10    3   23 1
    11    4    5 1
    12    4   24 1
    13    4   25 1
    14    5    6 1
    15    5    8 am
    16    6    7 1
    17    6   26 1
    18    6   27 1
    19    7   28 1
    20    7   29 1
    21    8    9 2
    22    8   10 am
    23   10   11 1
    24   10   30 1
    25   11   12 1
    26   11   31 1
    27   11   32 1
    28   12   13 1
    29   12   17 1
    30   12   14 1
    31   14   15 1
    32   14   33 1
    33   14   34 1
    34   15   16 1
    35   15   35 1
    36   15   36 1
    37   16   17 1
    38   17   37 1
    39   17   38 1
@<TRIPOS>MOLECULE
ZINC06645627
   29    31     0     0     0
SMALL
USER_CHARGES

@<TRIPOS>ATOM
      1 C1         -0.0173    1.3775    0.0106 C.ar      1 <0>        -0.1025
      2 C2          0.7551    1.3731   -1.1364 C.ar      1 <0>        -0.1073
      3 C3          1.9619    0.7018   -1.1556 C.ar      1 <0>        -0.0854
      4 C4          2.3997    0.0310   -0.0211 C.ar      1 <0>         0.1391
      5 C5          1.6218    0.0377    1.1295 C.ar      1 <0>        -0.1046
      6 C6          0.4157    0.7105    1.1419 C.ar      1 <0>        -0.1112
      7 N1          3.6213   -0.6504   -0.0373 N.pl3     1 <0>        -0.5275
      8 C7          3.7869   -2.1098    0.0518 C.3       1 <0>         0.1119
      9 H1          3.3993   -2.4724    1.0039 H         1 <0>         0.1370
     10 C8          3.0289   -2.7758   -1.1167 C.3       1 <0>        -0.5863
     11 S1          4.3642   -2.9200   -2.3823 S.o2      1 <0>         2.3590
     12 O1          4.5093   -1.6778   -3.0569 O.2       1 <0>        -0.9043
     13 O2          4.1749   -4.1119   -3.1324 O.2       1 <0>        -0.9187
     14 C9          5.7739   -3.1490   -1.2134 C.3       1 <0>        -0.5863
     15 C10         5.3032   -2.3166   -0.0114 C.3       1 <0>         0.1088
     16 H2          5.6572   -2.7737    0.9126 H         1 <0>         0.1377
     17 N2          5.8450   -0.9537   -0.1301 N.pl3     1 <0>        -0.6763
     18 C11         4.8292   -0.0796   -0.1422 C.2       1 <0>         0.5572
     19 S2          5.0544    1.6123   -0.2755 S.2       1 <0>        -0.5847
     20 H3         -0.9587    1.9067    0.0243 H         1 <0>         0.1303
     21 H4          0.4141    1.8950   -2.0184 H         1 <0>         0.1336
     22 H5          2.5643    0.6982   -2.0519 H         1 <0>         0.1345
     23 H6          1.9593   -0.4833    2.0132 H         1 <0>         0.1258
     24 H7         -0.1898    0.7157    2.0361 H         1 <0>         0.1318
     25 H8          2.6534   -3.7582   -0.8302 H         1 <0>         0.1622
     26 H9          2.2198   -2.1379   -1.4724 H         1 <0>         0.1553
     27 H10         5.8926   -4.1986   -0.9444 H         1 <0>         0.1619
     28 H11         6.6972   -2.7467   -1.6303 H         1 <0>         0.1570
     29 H12         6.7856   -0.7250   -0.1930 H         1 <0>         0.4522
@<TRIPOS>BOND
     1    1    6 ar
     2    1    2 ar
     3    1   20 1
     4    2    3 ar
     5    2   21 1
     6    3    4 ar
     7    3   22 1
     8    4    5 ar
     9    4    7 1
    10    5    6 ar
    11    5   23 1
    12    6   24 1
    13    7   18 1
    14    7    8 1
    15    8    9 1
    16    8   15 1
    17    8   10 1
    18   10   11 1
    19   10   25 1
    20   10   26 1
    21   11   12 2
    22   11   13 2
    23   11   14 1
    24   14   15 1
    25   14   27 1
    26   14   28 1
    27   15   16 1
    28   15   17 1
    29   17   18 1
    30   17   29 1
    31   18   19 2
@<TRIPOS>MOLECULE
ZINC13448687
   50    53     0     0     0
SMALL
USER_CHARGES
1-[3-(1-piperidylsulfonyl)benzoyl]indoline-5-carboxylic acid
@<TRIPOS>ATOM
      1 C1          5.3291   -0.6801   -2.0263 C.ar      1 <0>        -0.1432
      2 C2          4.8905   -1.8205   -2.6672 C.ar      1 <0>        -0.0735
      3 C3          3.9467   -2.6440   -2.0514 C.ar      1 <0>        -0.1444
      4 C4          3.4569   -2.3102   -0.7873 C.ar      1 <0>         0.0398
      5 C5          3.9000   -1.1645   -0.1600 C.ar      1 <0>        -0.6858
      6 C6          4.8356   -0.3521   -0.7763 C.ar      1 <0>         0.0003
      7 S1          3.2788   -0.7381    1.4328 S.o2      1 <0>         2.6910
      8 O1          4.2601    0.0885    2.0435 O.2       1 <0>        -0.9533
      9 O2          2.8226   -1.9454    2.0274 O.2       1 <0>        -0.9476
     10 N1          1.9408    0.2093    1.1990 N.pl3     1 <0>        -0.9953
     11 C7          0.6064   -0.3948    1.0851 C.3       1 <0>         0.1177
     12 C8         -0.0475    0.0946   -0.2109 C.3       1 <0>        -0.1384
     13 C9         -0.0465    1.6249   -0.2317 C.3       1 <0>        -0.1174
     14 C10         1.3955    2.1363   -0.1951 C.3       1 <0>        -0.1370
     15 C11         2.0657    1.6700    1.1011 C.3       1 <0>         0.1193
     16 C12         3.4722   -3.8672   -2.7320 C.2       1 <0>         0.5617
     17 O3          2.7624   -4.6561   -2.1392 O.2       1 <0>        -0.5073
     18 N2          3.8266   -4.1080   -4.0099 N.am      1 <0>        -0.5413
     19 C13         4.7661   -3.2953   -4.7866 C.3       1 <0>         0.0886
     20 C14         4.8373   -3.9689   -6.1668 C.3       1 <0>        -0.0832
     21 C15         3.9000   -5.1512   -6.0597 C.ar      1 <0>        -0.1521
     22 C16         3.3571   -5.1686   -4.7808 C.ar      1 <0>         0.1253
     23 C17         2.4466   -6.1745   -4.4380 C.ar      1 <0>        -0.1402
     24 C18         2.1000   -7.1413   -5.3504 C.ar      1 <0>        -0.0529
     25 C19         2.6527   -7.1234   -6.6343 C.ar      1 <0>        -0.1241
     26 C20         3.5582   -6.1161   -6.9802 C.ar      1 <0>        -0.0471
     27 C21         2.2829   -8.1591   -7.6166 C.2       1 <0>         0.4918
     28 O4          2.7657   -8.1390   -8.7315 O.co2     1 <0>        -0.6327
     29 H1          6.0597   -0.0422   -2.5015 H         1 <0>         0.1415
     30 H2          5.2768   -2.0756   -3.6429 H         1 <0>         0.1708
     31 H3          2.7298   -2.9455   -0.3034 H         1 <0>         0.1530
     32 H4          5.1822    0.5417   -0.2790 H         1 <0>         0.1435
     33 H5         -0.0038   -0.0964    1.9376 H         1 <0>         0.0779
     34 H6          0.6978   -1.4807    1.0608 H         1 <0>         0.0928
     35 H7         -1.0738   -0.2692   -0.2605 H         1 <0>         0.0782
     36 H8          0.5140   -0.2812   -1.0662 H         1 <0>         0.0678
     37 H9         -0.5333    1.9760   -1.1415 H         1 <0>         0.0653
     38 H10        -0.5870    2.0003    0.6372 H         1 <0>         0.0652
     39 H11         1.9434    1.7412   -1.0506 H         1 <0>         0.0672
     40 H12         1.3963    3.2256   -0.2336 H         1 <0>         0.0759
     41 H13         1.5746    2.1368    1.9548 H         1 <0>         0.0769
     42 H14         3.1200    1.9465    1.0873 H         1 <0>         0.0900
     43 H15         4.3941   -2.2753   -4.8825 H         1 <0>         0.0906
     44 H16         5.7483   -3.2974   -4.3138 H         1 <0>         0.0908
     45 H17         4.4976   -3.2831   -6.9428 H         1 <0>         0.0911
     46 H18         5.8530   -4.3061   -6.3737 H         1 <0>         0.0912
     47 H19         2.0167   -6.1935   -3.4475 H         1 <0>         0.1346
     48 H20         1.3995   -7.9160   -5.0755 H         1 <0>         0.1383
     49 H21         3.9902   -6.0951   -7.9699 H         1 <0>         0.1314
     50 O5          1.4096   -9.1277   -7.2779 O.co2     1 <0>        -0.7529
@<TRIPOS>BOND
     1    1    6 ar
     2    1    2 ar
     3    1   29 1
     4    2    3 ar
     5    2   30 1
     6    3    4 ar
     7    3   16 1
     8    4    5 ar
     9    4   31 1
    10    5    6 ar
    11    5    7 1
    12    6   32 1
    13    7    8 2
    14    7    9 2
    15    7   10 1
    16   10   15 1
    17   10   11 1
    18   11   12 1
    19   11   33 1
    20   11   34 1
    21   12   13 1
    22   12   35 1
    23   12   36 1
    24   13   14 1
    25   13   37 1
    26   13   38 1
    27   14   15 1
    28   14   39 1
    29   14   40 1
    30   15   41 1
    31   15   42 1
    32   16   17 2
    33   16   18 am
    34   18   22 1
    35   18   19 1
    36   19   20 1
    37   19   43 1
    38   19   44 1
    39   20   21 1
    40   20   45 1
    41   20   46 1
    42   21   26 ar
    43   21   22 ar
    44   22   23 ar
    45   23   24 ar
    46   23   47 1
    47   24   25 ar
    48   24   48 1
    49   25   26 ar
    50   25   27 1
    51   26   49 1
    52   27   28 2
    53   27   50 1
@<TRIPOS>MOLECULE
ZINC35568394
   55    58     0     0     0
SMALL
USER_CHARGES

@<TRIPOS>ATOM
      1 C1         -0.0062    1.5074   -0.1792 C.3       1 <0>        -0.1440
      2 C2          0.0111   -0.0178   -0.0593 C.3       1 <0>        -0.0817
      3 C3         -1.4039   -0.5358   -0.0352 C.ar      1 <0>        -0.0920
      4 C4         -2.0688   -0.6743    1.1689 C.ar      1 <0>        -0.1235
      5 C5         -3.3667   -1.1495    1.1910 C.ar      1 <0>        -0.1150
      6 C6         -3.9999   -1.4856    0.0091 C.ar      1 <0>        -0.0784
      7 C7         -3.3354   -1.3462   -1.1950 C.ar      1 <0>        -0.0737
      8 C8         -2.0389   -0.8670   -1.2175 C.ar      1 <0>        -0.1210
      9 C9         -5.4145   -2.0046    0.0333 C.3       1 <0>         0.2656
     10 H1         -5.8376   -1.8922    1.0316 H         1 <0>         0.0649
     11 C10        -5.4425   -3.4569   -0.3823 C.2       1 <0>        -0.5070
     12 C11        -6.2091   -3.5301   -1.4941 C.2       1 <0>         0.2697
     13 C12        -6.6960   -2.1790   -1.8386 C.2       1 <0>         0.5176
     14 O1         -7.4093   -1.9156   -2.7864 O.2       1 <0>        -0.5231
     15 N1         -6.2341   -1.2819   -0.9466 N.am      1 <0>        -0.6085
     16 C13        -6.5015    0.1585   -0.9524 C.3       1 <0>         0.1297
     17 C14        -5.4267    0.8733   -1.7738 C.3       1 <0>         0.0543
     18 H2         -4.4380    0.6099   -1.3980 H         1 <0>         0.0917
     19 C15        -5.6303    2.4011   -1.6861 C.3       1 <0>        -0.1483
     20 C16        -5.3066    2.8604   -3.1340 C.3       1 <0>        -0.1540
     21 C17        -5.8390    1.6560   -3.9505 C.3       1 <0>         0.0497
     22 O2         -5.5386    0.4983   -3.1517 O.3       1 <0>        -0.3563
     23 O3         -6.4859   -4.6624   -2.1825 O.3       1 <0>        -0.6529
     24 C18        -4.7673   -4.5732    0.2905 C.2       1 <0>         0.5502
     25 O4         -3.8677   -5.1702   -0.2739 O.2       1 <0>        -0.4584
     26 C19        -5.1755   -4.9697    1.6420 C.2       1 <0>        -0.2487
     27 C20        -4.6226   -5.9173    2.4957 C.2       1 <0>         0.1090
     28 N2         -5.2061   -6.0585    3.6592 N.2       1 <0>        -0.5241
     29 C21        -6.2548   -5.3431    3.9975 C.2       1 <0>         0.0243
     30 S1         -6.5169   -4.3643    2.6538 S.3       1 <0>         0.1684
     31 C22        -7.0347   -5.3846    5.2863 C.3       1 <0>        -0.0606
     32 C23        -3.4199   -6.7363    2.1038 C.3       1 <0>        -0.0833
     33 H3          1.0173    1.8821   -0.1967 H         1 <0>         0.0526
     34 H4         -0.5137    1.7937   -1.1004 H         1 <0>         0.0543
     35 H5         -0.5344    1.9330    0.6740 H         1 <0>         0.0536
     36 H6          0.5393   -0.4434   -0.9125 H         1 <0>         0.0679
     37 H7          0.5186   -0.3041    0.8619 H         1 <0>         0.0668
     38 H8         -1.5740   -0.4117    2.0923 H         1 <0>         0.1135
     39 H9         -3.8859   -1.2584    2.1317 H         1 <0>         0.1151
     40 H10        -3.8300   -1.6092   -2.1184 H         1 <0>         0.1216
     41 H11        -1.5210   -0.7546   -2.1585 H         1 <0>         0.1146
     42 H12        -7.4803    0.3445   -1.3944 H         1 <0>         0.0805
     43 H13        -6.4873    0.5348    0.0705 H         1 <0>         0.0811
     44 H14        -6.6609    2.6407   -1.4244 H         1 <0>         0.0765
     45 H15        -4.9348    2.8449   -0.9737 H         1 <0>         0.0797
     46 H16        -5.8447    3.7743   -3.3857 H         1 <0>         0.0786
     47 H17        -4.2333    2.9871   -3.2752 H         1 <0>         0.0752
     48 H18        -6.9151    1.7454   -4.0987 H         1 <0>         0.0569
     49 H19        -5.3278    1.5947   -4.9113 H         1 <0>         0.0795
     50 H20        -6.6047   -4.6758    5.9941 H         1 <0>         0.0853
     51 H21        -8.0735   -5.1183    5.0912 H         1 <0>         0.0834
     52 H22        -6.9898   -6.3896    5.7059 H         1 <0>         0.0874
     53 H23        -2.5114   -6.2154    2.4062 H         1 <0>         0.0729
     54 H24        -3.4641   -7.7066    2.5984 H         1 <0>         0.0682
     55 H25        -3.4141   -6.8793    1.0232 H         1 <0>         0.0942
@<TRIPOS>BOND
     1    1    2 1
     2    1   33 1
     3    1   34 1
     4    1   35 1
     5    2    3 1
     6    2   36 1
     7    2   37 1
     8    3    8 ar
     9    3    4 ar
    10    4    5 ar
    11    4   38 1
    12    5    6 ar
    13    5   39 1
    14    6    7 ar
    15    6    9 1
    16    7    8 ar
    17    7   40 1
    18    8   41 1
    19    9   10 1
    20    9   15 1
    21    9   11 1
    22   11   12 2
    23   11   24 1
    24   12   13 1
    25   12   23 1
    26   13   14 2
    27   13   15 am
    28   15   16 1
    29   16   17 1
    30   16   42 1
    31   16   43 1
    32   17   18 1
    33   17   22 1
    34   17   19 1
    35   19   20 1
    36   19   44 1
    37   19   45 1
    38   20   21 1
    39   20   46 1
    40   20   47 1
    41   21   22 1
    42   21   48 1
    43   21   49 1
    44   24   25 2
    45   24   26 1
    46   26   30 1
    47   26   27 2
    48   27   28 1
    49   27   32 1
    50   28   29 2
    51   29   30 1
    52   29   31 1
    53   31   50 1
    54   31   51 1
    55   31   52 1
    56   32   53 1
    57   32   54 1
    58   32   55 1
@<TRIPOS>MOLECULE
ZINC39517944
   36    39     0     0     0
SMALL
USER_CHARGES

@<TRIPOS>ATOM
      1 C1          2.3760    1.3078   -0.0206 C.2       1 <0>        -0.1046
      2 C2          1.1922    2.0402    0.0016 C.2       1 <0>        -0.0273
      3 C3          0.0059    1.3616    0.0171 C.2       1 <0>        -0.0821
      4 S1          0.5509   -0.3380    0.0003 S.3       1 <0>         0.0987
      5 C4          2.3109   -0.0438   -0.0261 C.2       1 <0>        -0.1271
      6 Cl1         3.6082   -1.1971   -0.0527 Cl        1 <0>         0.0110
      7 Cl2        -1.6121    1.9901    0.0466 Cl        1 <0>         0.0542
      8 C5          1.2179    3.5245    0.0089 C.2       1 <0>         0.1345
      9 C6          2.4082    4.1929    0.0990 C.2       1 <0>        -0.3092
     10 S2          1.8426    5.8887    0.0635 S.3       1 <0>        -0.0489
     11 C7          0.0946    5.5385   -0.0665 C.2       1 <0>         0.4197
     12 N1          0.0916    4.2102   -0.0771 N.2       1 <0>        -0.5646
     13 N2         -0.9511    6.4006   -0.1404 N.2       1 <0>        -0.5906
     14 C8         -0.7363    7.6992   -0.1203 C.2       1 <0>         0.4504
     15 O1          0.5266    8.1745   -0.0261 O.3       1 <0>        -0.6056
     16 C9         -1.8667    8.6312   -0.2002 C.2       1 <0>        -0.0792
     17 C10        -3.1660    8.1553   -0.2913 C.2       1 <0>         0.0036
     18 C11        -4.2171    9.0722   -0.3620 C.2       1 <0>        -0.1933
     19 C12        -3.9806   10.3983   -0.3298 C.2       1 <0>         0.1057
     20 N3         -2.7214   10.9263   -0.2238 N.pl3     1 <0>        -0.5161
     21 C13        -1.6377   10.0944   -0.1785 C.2       1 <0>         0.5129
     22 N4         -0.3866   10.4765   -0.1353 N.2       1 <0>        -0.8765
     23 S3          0.0446   12.0743   -0.1106 S.o2      1 <0>         2.5312
     24 O2          1.1745   12.1662   -0.9673 O.2       1 <0>        -0.9403
     25 O3          0.1437   12.4098    1.2667 O.2       1 <0>        -0.9691
     26 C14        -1.3934   12.8989   -0.8647 C.3       1 <0>        -0.6912
     27 C15        -2.6374   12.3872   -0.1477 C.3       1 <0>         0.1074
     28 H1          3.3316    1.8108   -0.0378 H         1 <0>         0.1493
     29 H2          3.4129    3.8034    0.1718 H         1 <0>         0.1645
     30 H3         -3.3618    7.0933   -0.3078 H         1 <0>         0.1625
     31 H4         -5.2326    8.7137   -0.4438 H         1 <0>         0.1529
     32 H5         -4.8206   11.0744   -0.3906 H         1 <0>         0.1650
     33 H6         -1.3090   13.9787   -0.7426 H         1 <0>         0.1458
     34 H7         -1.4531   12.6472   -1.9235 H         1 <0>         0.1361
     35 H8         -3.5273   12.8223   -0.6026 H         1 <0>         0.1176
     36 H9         -2.5848   12.6899    0.8980 H         1 <0>         0.1026
@<TRIPOS>BOND
     1    1    5 2
     2    1    2 1
     3    1   28 1
     4    2    3 2
     5    2    8 1
     6    3    4 1
     7    3    7 1
     8    4    5 1
     9    5    6 1
    10    8   12 1
    11    8    9 2
    12    9   10 1
    13    9   29 1
    14   10   11 1
    15   11   12 2
    16   11   13 1
    17   13   14 2
    18   14   15 1
    19   14   16 1
    20   16   21 1
    21   16   17 2
    22   17   18 1
    23   17   30 1
    24   18   19 2
    25   18   31 1
    26   19   20 1
    27   19   32 1
    28   20   27 1
    29   20   21 1
    30   21   22 2
    31   22   23 1
    32   23   24 2
    33   23   25 2
    34   23   26 1
    35   26   27 1
    36   26   33 1
    37   26   34 1
    38   27   35 1
    39   27   36 1
@<TRIPOS>MOLECULE
ZINC51041717
   26    27     0     0     0
SMALL
USER_CHARGES

@<TRIPOS>ATOM
      1 C1         -0.0167    1.3788    0.0096 C.ar      1 <0>        -0.0600
      2 C2          1.1933    2.0590    0.0017 C.ar      1 <0>        -0.1618
      3 C3          2.3806    1.3321   -0.0135 C.ar      1 <0>         0.1222
      4 N1          2.3604    0.0030   -0.0205 N.ar      1 <0>        -0.4841
      5 C4          1.2266   -0.6700   -0.0133 C.ar      1 <0>         0.2872
      6 C5          0.0021   -0.0041    0.0020 C.ar      1 <0>        -0.1816
      7 O1          1.2520   -2.0263   -0.0208 O.3       1 <0>        -0.2446
      8 C6          2.4639   -2.6417   -0.0357 C.ar      1 <0>         0.2196
      9 C7          3.0750   -2.9449   -1.2444 C.ar      1 <0>        -0.0923
     10 C8          4.3076   -3.5704   -1.2565 C.ar      1 <0>        -0.0014
     11 C9          4.9316   -3.8944   -0.0660 C.ar      1 <0>        -0.0430
     12 C10         4.3253   -3.5936    1.1397 C.ar      1 <0>        -0.0016
     13 C11         3.0953   -2.9630    1.1579 C.ar      1 <0>        -0.0924
     14 Br1         2.2704   -2.5450    2.8073 Br        1 <0>         0.0094
     15 N2          6.2511   -4.5651   -0.0822 N.pl3     1 <0>         0.0400
     16 O2          6.7821   -4.8290   -1.1357 O.2       1 <0>        -0.1480
     17 O3          6.7977   -4.8489    0.9582 O.3       1 <0>        -0.1483
     18 Br2         2.2218   -2.5033   -2.8732 Br        1 <0>         0.0094
     19 C12         3.6764    2.0454   -0.0226 C.2       1 <0>         0.5322
     20 O4          3.7015    3.2676   -0.0166 O.co2     1 <0>        -0.6746
     21 O5          4.7224    1.4127   -0.0359 O.co2     1 <0>        -0.6554
     22 H1         -0.9524    1.9178    0.0259 H         1 <0>         0.1402
     23 H2          1.2134    3.1388    0.0070 H         1 <0>         0.1462
     24 H3         -0.9225   -0.5623    0.0082 H         1 <0>         0.1366
     25 H4          4.7836   -3.8066   -2.1967 H         1 <0>         0.1732
     26 H5          4.8148   -3.8482    2.0681 H         1 <0>         0.1732
@<TRIPOS>BOND
     1    1    6 ar
     2    1    2 ar
     3    1   22 1
     4    2    3 ar
     5    2   23 1
     6    3    4 ar
     7    3   19 1
     8    4    5 ar
     9    5    6 ar
    10    5    7 1
    11    6   24 1
    12    7    8 1
    13    8   13 ar
    14    8    9 ar
    15    9   10 ar
    16    9   18 1
    17   10   11 ar
    18   10   25 1
    19   11   12 ar
    20   11   15 1
    21   12   13 ar
    22   12   26 1
    23   13   14 1
    24   15   16 2
    25   15   17 1
    26   19   20 2
    27   19   21 1
@<TRIPOS>MOLECULE
ZINC13686532
   53    56     0     0     0
SMALL
USER_CHARGES

@<TRIPOS>ATOM
      1 C1          0.9966    1.8934    0.4239 C.3       1 <0>        -0.1185
      2 C2          0.6360    0.4653    0.1050 C.ar      1 <0>        -0.0610
      3 C3          0.7207    0.0046   -1.1942 C.ar      1 <0>        -0.1237
      4 C4          0.3896   -1.3056   -1.4877 C.ar      1 <0>        -0.1018
      5 C5         -0.0267   -2.1584   -0.4819 C.ar      1 <0>        -0.1244
      6 C6         -0.1134   -1.7035    0.8193 C.ar      1 <0>        -0.0640
      7 C7          0.2238   -0.3901    1.1180 C.ar      1 <0>         0.1101
      8 N1          0.1429    0.0726    2.4382 N.pl3     1 <0>        -0.3916
      9 C8          1.1661    0.0274    3.3453 C.2       1 <0>        -0.0016
     10 C9          0.7499    0.5519    4.5089 C.2       1 <0>        -0.0872
     11 C10        -0.6495    0.9564    4.3055 C.2       1 <0>        -0.1720
     12 C11        -0.9509    0.6297    2.9910 C.2       1 <0>         0.0704
     13 C12        -2.2726    0.8562    2.3033 C.3       1 <0>        -0.0882
     14 C13        -1.5097    1.5593    5.2534 C.2       1 <0>         0.0925
     15 C14        -1.0497    2.6020    6.0418 C.2       1 <0>        -0.2841
     16 C15        -1.8442    3.1246    7.1726 C.2       1 <0>         0.5408
     17 N2         -1.3365    4.1372    7.8944 N.2       1 <0>        -0.6757
     18 C16        -0.1694    4.6655    7.6235 C.2       1 <0>         0.6362
     19 O1          0.2651    5.6782    8.3987 O.3       1 <0>        -0.6557
     20 N3          0.6281    4.2502    6.6057 N.am      1 <0>        -0.5676
     21 C17         0.2568    3.2365    5.7950 C.2       1 <0>         0.5614
     22 O2          0.9755    2.8625    4.8867 O.2       1 <0>        -0.5081
     23 C18         1.9177    4.9102    6.3873 C.3       1 <0>         0.1883
     24 C19         2.9848    4.2034    7.1829 C.2       1 <0>        -0.0093
     25 C20         3.7398    3.1780    6.7493 C.2       1 <0>        -0.2005
     26 C21         4.6033    2.8271    7.8123 C.2       1 <0>        -0.2226
     27 C22         4.3244    3.6590    8.8319 C.2       1 <0>        -0.0464
     28 O3          3.3472    4.4942    8.4429 O.3       1 <0>        -0.1564
     29 O4         -2.9339    2.6488    7.4436 O.2       1 <0>        -0.5521
     30 C23         2.5430   -0.5250    3.0804 C.3       1 <0>        -0.0750
     31 C24        -0.5678   -2.6334    1.9147 C.3       1 <0>        -0.1176
     32 H1          2.0589    1.9560    0.6597 H         1 <0>         0.0746
     33 H2          0.7779    2.5244   -0.4376 H         1 <0>         0.0680
     34 H3          0.4137    2.2328    1.2801 H         1 <0>         0.0755
     35 H4          1.0456    0.6682   -1.9819 H         1 <0>         0.1280
     36 H5          0.4560   -1.6634   -2.5045 H         1 <0>         0.1264
     37 H6         -0.2846   -3.1811   -0.7142 H         1 <0>         0.1278
     38 H7          1.3282    0.6563    5.4151 H         1 <0>         0.1359
     39 H8         -2.9094   -0.0173    2.4433 H         1 <0>         0.0741
     40 H9         -2.7591    1.7329    2.7309 H         1 <0>         0.0831
     41 H10        -2.1052    1.0169    1.2383 H         1 <0>         0.0633
     42 H11        -2.5247    1.2069    5.3626 H         1 <0>         0.1364
     43 H12         2.1700    4.8730    5.3276 H         1 <0>         0.1087
     44 H13         1.8530    5.9496    6.7092 H         1 <0>         0.1076
     45 H14         3.6945    2.7119    5.7762 H         1 <0>         0.1473
     46 H15         5.3445    2.0415    7.8069 H         1 <0>         0.1423
     47 H16         4.8071    3.6581    9.7980 H         1 <0>         0.1968
     48 H17         3.1885    0.2710    2.7091 H         1 <0>         0.0646
     49 H18         2.9572   -0.9272    4.0049 H         1 <0>         0.0749
     50 H19         2.4791   -1.3182    2.3355 H         1 <0>         0.0547
     51 H20         0.2969   -3.1406    2.3427 H         1 <0>         0.0736
     52 H21        -1.0739   -2.0600    2.6914 H         1 <0>         0.0729
     53 H22        -1.2550   -3.3722    1.5024 H         1 <0>         0.0690
@<TRIPOS>BOND
     1    1    2 1
     2    1   32 1
     3    1   33 1
     4    1   34 1
     5    2    7 ar
     6    2    3 ar
     7    3    4 ar
     8    3   35 1
     9    4    5 ar
    10    4   36 1
    11    5    6 ar
    12    5   37 1
    13    6    7 ar
    14    6   31 1
    15    7    8 1
    16    8   12 1
    17    8    9 1
    18    9   10 2
    19    9   30 1
    20   10   11 1
    21   10   38 1
    22   11   12 2
    23   11   14 1
    24   12   13 1
    25   13   39 1
    26   13   40 1
    27   13   41 1
    28   14   15 2
    29   14   42 1
    30   15   21 1
    31   15   16 1
    32   16   17 1
    33   16   29 2
    34   17   18 2
    35   18   19 1
    36   18   20 1
    37   20   21 am
    38   20   23 1
    39   21   22 2
    40   23   24 1
    41   23   43 1
    42   23   44 1
    43   24   28 1
    44   24   25 2
    45   25   26 1
    46   25   45 1
    47   26   27 2
    48   26   46 1
    49   27   28 1
    50   27   47 1
    51   30   48 1
    52   30   49 1
    53   30   50 1
    54   31   51 1
    55   31   52 1
    56   31   53 1
@<TRIPOS>MOLECULE
ZINC26539843
   37    39     0     0     0
SMALL
USER_CHARGES
4-acetyl-N-[4-(1,2,4-triazol-1-yl)phenyl]benzenesulfonamide
@<TRIPOS>ATOM
      1 C1          3.6861    3.8472    0.4917 C.3       1 <0>        -0.2053
      2 C2          2.2737    3.3250    0.4317 C.2       1 <0>         0.3967
      3 O1          1.3397    4.0973    0.4690 O.2       1 <0>        -0.4620
      4 C3          2.0281    1.8777    0.3279 C.ar      1 <0>        -0.1484
      5 C4          0.7189    1.3892    0.2720 C.ar      1 <0>        -0.0866
      6 C5          0.4970    0.0318    0.1743 C.ar      1 <0>        -0.0394
      7 C6          1.5658   -0.8465    0.1316 C.ar      1 <0>        -0.6229
      8 C7          2.8644   -0.3708    0.1860 C.ar      1 <0>        -0.0455
      9 C8          3.1027    0.9837    0.2842 C.ar      1 <0>        -0.0991
     10 S1          1.2717   -2.5793    0.0067 S.o2      1 <0>         2.5913
     11 O2          2.4694   -3.2250    0.4163 O.2       1 <0>        -1.0321
     12 O3          0.0207   -2.8252    0.6342 O.2       1 <0>        -0.9936
     13 N1          1.0718   -2.9274   -1.5999 N.2       1 <0>        -1.0833
     14 C9          2.1262   -2.7258   -2.4952 C.ar      1 <0>         0.2320
     15 C10         2.0918   -1.6548   -3.3792 C.ar      1 <0>        -0.1386
     16 C11         3.1357   -1.4529   -4.2595 C.ar      1 <0>        -0.1101
     17 C12         4.2146   -2.3268   -4.2694 C.ar      1 <0>         0.0675
     18 C13         4.2469   -3.4004   -3.3895 C.ar      1 <0>        -0.0860
     19 C14         3.2061   -3.5996   -2.5050 C.ar      1 <0>        -0.1461
     20 N2          5.2728   -2.1247   -5.1684 N.pl3     1 <0>        -0.2984
     21 C15         5.3812   -1.1387   -6.0795 C.2       1 <0>         0.2434
     22 N3          6.5131   -1.2984   -6.7168 N.2       1 <0>        -0.5501
     23 C16         7.1467   -2.3738   -6.2506 C.2       1 <0>         0.1871
     24 N4          6.4270   -2.9137   -5.3015 N.2       1 <0>        -0.3184
     25 H1          4.3910    3.0040    0.4456 H         1 <0>         0.0864
     26 H2          3.8338    4.3977    1.4325 H         1 <0>         0.0945
     27 H3          3.8643    4.5211   -0.3593 H         1 <0>         0.0952
     28 H4         -0.1161    2.0736    0.3007 H         1 <0>         0.1332
     29 H5         -0.5135   -0.3470    0.1314 H         1 <0>         0.1396
     30 H6          3.6932   -1.0624    0.1517 H         1 <0>         0.1389
     31 H7          4.1166    1.3533    0.3273 H         1 <0>         0.1336
     32 H8          1.2506   -0.9775   -3.3747 H         1 <0>         0.1244
     33 H9          3.1109   -0.6179   -4.9441 H         1 <0>         0.1165
     34 H10         5.0863   -4.0800   -3.3975 H         1 <0>         0.1241
     35 H11         3.2311   -4.4350   -1.8209 H         1 <0>         0.1287
     36 H12         4.6611   -0.3525   -6.2524 H         1 <0>         0.2167
     37 H13         8.1006   -2.7403   -6.5999 H         1 <0>         0.2159
@<TRIPOS>BOND
     1    1    2 1
     2    1   25 1
     3    1   26 1
     4    1   27 1
     5    2    3 2
     6    2    4 1
     7    4    9 ar
     8    4    5 ar
     9    5    6 ar
    10    5   28 1
    11    6    7 ar
    12    6   29 1
    13    7    8 ar
    14    7   10 1
    15    8    9 ar
    16    8   30 1
    17    9   31 1
    18   10   11 2
    19   10   12 2
    20   10   13 1
    21   13   14 1
    22   14   19 ar
    23   14   15 ar
    24   15   16 ar
    25   15   32 1
    26   16   17 ar
    27   16   33 1
    28   17   18 ar
    29   17   20 1
    30   18   19 ar
    31   18   34 1
    32   19   35 1
    33   20   24 1
    34   20   21 1
    35   21   22 2
    36   21   36 1
    37   22   23 1
    38   23   24 2
    39   23   37 1
@<TRIPOS>MOLECULE
ZINC13124876
   37    39     0     0     0
SMALL
USER_CHARGES

@<TRIPOS>ATOM
      1 C1         -0.4097    1.2717   -1.2252 C.3       1 <0>        -0.0623
      2 C2         -0.1978   -0.1236   -0.6968 C.2       1 <0>        -0.2517
      3 C3         -0.8383   -0.7302    0.3396 C.2       1 <0>        -0.1943
      4 C4         -0.5026   -2.0146    0.6712 C.2       1 <0>        -0.1106
      5 C5          0.4986   -2.5986   -0.1124 C.2       1 <0>        -0.2150
      6 S1          0.8775   -1.2860   -1.2579 S.3       1 <0>         0.3331
      7 C6          1.0544   -3.8821   -0.0237 C.2       1 <0>         0.1000
      8 C7          2.4339   -4.0539   -0.1360 C.2       1 <0>        -0.2423
      9 C8          3.0089   -5.3500   -0.2600 C.2       1 <0>         0.4943
     10 O1          2.2238   -6.4483   -0.2721 O.3       1 <0>        -0.6443
     11 N1          4.3220   -5.4640   -0.3637 N.2       1 <0>        -0.6716
     12 C9          5.1272   -4.4045   -0.3561 C.2       1 <0>         0.6685
     13 O2          6.3282   -4.5847   -0.4557 O.2       1 <0>        -0.5793
     14 N2          4.6739   -3.1454   -0.2437 N.am      1 <0>        -0.5809
     15 C10         3.3496   -2.9010   -0.1368 C.2       1 <0>         0.5589
     16 O3          2.9270   -1.7636   -0.0397 O.2       1 <0>        -0.5041
     17 C11         5.6219   -2.0284   -0.2434 C.3       1 <0>         0.1024
     18 C12         5.8463   -1.5495   -1.6791 C.3       1 <0>         0.0687
     19 H1          6.1528   -2.3878   -2.3047 H         1 <0>         0.0842
     20 C13         6.9338   -0.4540   -1.7018 C.3       1 <0>        -0.1446
     21 C14         6.3771    0.5412   -2.7562 C.3       1 <0>        -0.1554
     22 C15         4.8534    0.4128   -2.5062 C.3       1 <0>         0.0517
     23 O4          4.6395   -0.9747   -2.1938 O.3       1 <0>        -0.3605
     24 H2          0.2603    1.4471   -2.0670 H         1 <0>         0.0668
     25 H3         -1.4430    1.3827   -1.5540 H         1 <0>         0.0719
     26 H4         -0.1996    1.9946   -0.4369 H         1 <0>         0.0725
     27 H5         -1.6017   -0.2042    0.8936 H         1 <0>         0.1203
     28 H6         -0.9788   -2.5425    1.4842 H         1 <0>         0.1354
     29 H7          0.4145   -4.7381    0.1316 H         1 <0>         0.1584
     30 H8          5.2192   -1.2103    0.3538 H         1 <0>         0.0835
     31 H9          6.5700   -2.3567    0.1825 H         1 <0>         0.0969
     32 H10         7.0231    0.0242   -0.7264 H         1 <0>         0.0775
     33 H11         7.8911   -0.8643   -2.0231 H         1 <0>         0.0827
     34 H12         6.7233    1.5559   -2.5599 H         1 <0>         0.0787
     35 H13         6.6370    0.2282   -3.7675 H         1 <0>         0.0756
     36 H14         4.5534    1.0408   -1.6672 H         1 <0>         0.0567
     37 H15         4.2983    0.6878   -3.4030 H         1 <0>         0.0781
@<TRIPOS>BOND
     1    1    2 1
     2    1   24 1
     3    1   25 1
     4    1   26 1
     5    2    6 1
     6    2    3 2
     7    3    4 1
     8    3   27 1
     9    4    5 2
    10    4   28 1
    11    5    6 1
    12    5    7 1
    13    7    8 2
    14    7   29 1
    15    8   15 1
    16    8    9 1
    17    9   10 1
    18    9   11 2
    19   11   12 1
    20   12   13 2
    21   12   14 am
    22   14   15 am
    23   14   17 1
    24   15   16 2
    25   17   18 1
    26   17   30 1
    27   17   31 1
    28   18   19 1
    29   18   23 1
    30   18   20 1
    31   20   21 1
    32   20   32 1
    33   20   33 1
    34   21   22 1
    35   21   34 1
    36   21   35 1
    37   22   23 1
    38   22   36 1
    39   22   37 1
@<TRIPOS>MOLECULE
ZINC49545536
   43    45     0     0     0
SMALL
USER_CHARGES

@<TRIPOS>ATOM
      1 C1         -0.0171    1.4063    0.0098 C.2       1 <0>        -0.2003
      2 C2          1.1829    2.0655    0.0019 C.2       1 <0>        -0.0214
      3 C3          2.3605    1.3117   -0.0090 C.2       1 <0>         0.0668
      4 N1          2.2965    0.0020   -0.0227 N.2       1 <0>        -0.2141
      5 N2          1.1885   -0.6411   -0.0187 N.am      1 <0>        -0.3219
      6 C4          0.0021   -0.0041    0.0020 C.2       1 <0>         0.4843
      7 O1         -1.0411   -0.6378    0.0143 O.2       1 <0>        -0.5350
      8 C5          1.2127   -2.1058   -0.0378 C.3       1 <0>         0.0934
      9 C6          1.2053   -2.5898   -1.4649 C.2       1 <0>         0.5031
     10 O2          1.1821   -1.7901   -2.3764 O.2       1 <0>        -0.5313
     11 N3          1.2244   -3.9115   -1.7283 N.am      1 <0>        -0.6031
     12 C7          1.2464   -4.8925   -0.6348 C.3       1 <0>         0.1040
     13 C8          2.4274   -5.8442   -0.8499 C.3       1 <0>        -0.1351
     14 C9          2.3317   -6.4621   -2.2467 C.3       1 <0>        -0.0947
     15 C10         2.4045   -5.3558   -3.3018 C.3       1 <0>        -0.1662
     16 H1          3.3392   -4.8066   -3.1891 H         1 <0>         0.0662
     17 C11         1.2175   -4.3987   -3.1144 C.3       1 <0>         0.1389
     18 C12         2.3434   -5.9680   -4.6775 C.2       1 <0>         0.4992
     19 O3          1.8516   -5.3430   -5.6016 O.co2     1 <0>        -0.6949
     20 O4          2.7859   -7.0883   -4.8664 O.co2     1 <0>        -0.6951
     21 C13         3.7221    1.9565    0.0016 C.3       1 <0>        -0.0510
     22 C14         3.6224    3.4207   -0.4223 C.3       1 <0>        -0.1204
     23 C15         2.5460    4.1047    0.4278 C.3       1 <0>        -0.1211
     24 C16         1.1793    3.5689    0.0028 C.3       1 <0>        -0.0872
     25 H2         -0.9502    1.9498    0.0260 H         1 <0>         0.1611
     26 H3          2.1142   -2.4608    0.4617 H         1 <0>         0.1281
     27 H4          0.3346   -2.4904    0.4809 H         1 <0>         0.1322
     28 H5          1.3626   -4.3754    0.3177 H         1 <0>         0.0750
     29 H6          0.3156   -5.4596   -0.6339 H         1 <0>         0.0731
     30 H7          3.3620   -5.2904   -0.7603 H         1 <0>         0.0632
     31 H8          2.3991   -6.6346   -0.0998 H         1 <0>         0.0714
     32 H9          3.1574   -7.1584   -2.3932 H         1 <0>         0.0720
     33 H10         1.3858   -6.9950   -2.3440 H         1 <0>         0.0566
     34 H11         0.2844   -4.9263   -3.3116 H         1 <0>         0.0650
     35 H12         1.3146   -3.5557   -3.7985 H         1 <0>         0.0954
     36 H13         4.1398    1.9000    1.0068 H         1 <0>         0.0852
     37 H14         4.3778    1.4253   -0.6883 H         1 <0>         0.0883
     38 H15         4.5817    3.9135   -0.2639 H         1 <0>         0.0781
     39 H16         3.3482    3.4786   -1.4757 H         1 <0>         0.0708
     40 H17         2.7153    3.8821    1.4813 H         1 <0>         0.0695
     41 H18         2.5829    5.1822    0.2677 H         1 <0>         0.0745
     42 H19         0.9462    3.9294   -0.9991 H         1 <0>         0.0911
     43 H20         0.4196    3.9271    0.6976 H         1 <0>         0.0863
@<TRIPOS>BOND
     1    1    6 1
     2    1    2 2
     3    1   25 1
     4    2   24 1
     5    2    3 1
     6    3    4 2
     7    3   21 1
     8    4    5 1
     9    5    6 am
    10    5    8 1
    11    6    7 2
    12    8    9 1
    13    8   26 1
    14    8   27 1
    15    9   10 2
    16    9   11 am
    17   11   17 1
    18   11   12 1
    19   12   13 1
    20   12   28 1
    21   12   29 1
    22   13   14 1
    23   13   30 1
    24   13   31 1
    25   14   15 1
    26   14   32 1
    27   14   33 1
    28   15   16 1
    29   15   17 1
    30   15   18 1
    31   17   34 1
    32   17   35 1
    33   18   19 2
    34   18   20 1
    35   21   22 1
    36   21   36 1
    37   21   37 1
    38   22   23 1
    39   22   38 1
    40   22   39 1
    41   23   24 1
    42   23   40 1
    43   23   41 1
    44   24   42 1
    45   24   43 1
@<TRIPOS>MOLECULE
ZINC61637633
   38    39     0     0     0
SMALL
USER_CHARGES

@<TRIPOS>ATOM
      1 C1         -1.2218    2.1030    0.7029 C.3       1 <0>        -0.1237
      2 S1         -1.1604    0.8992   -0.6526 S.3       1 <0>        -0.1056
      3 C2         -2.7703    0.1831   -0.6600 C.ar      1 <0>         0.2488
      4 C3         -3.0833   -0.8183   -1.6018 C.ar      1 <0>        -0.2148
      5 C4         -4.3617   -1.3774   -1.5973 C.ar      1 <0>         0.0482
      6 C5         -5.2834   -0.9169   -0.6519 C.ar      1 <0>        -0.3050
      7 C6         -4.8929    0.0854    0.2537 C.ar      1 <0>         0.4772
      8 O1         -5.7780    0.5373    1.1720 O.3       1 <0>        -0.6461
      9 N1         -3.6712    0.5879    0.2231 N.ar      1 <0>        -0.5701
     10 C7         -6.6457   -1.4741   -0.6057 C.2       1 <0>         0.5976
     11 O2         -7.6080   -0.7310   -0.6358 O.2       1 <0>        -0.5302
     12 N2         -6.8261   -2.8076   -0.5301 N.am      1 <0>        -0.6227
     13 C8         -5.6804   -3.7168   -0.3751 C.3       1 <0>         0.1162
     14 C9         -5.9595   -4.6548    0.8042 C.3       1 <0>         0.0252
     15 N3         -7.2552   -5.3170    0.6030 N.3       1 <0>        -0.5318
     16 C10        -8.3548   -4.3430    0.5875 C.3       1 <0>         0.0432
     17 C11        -8.1744   -3.3918   -0.5944 C.3       1 <0>         0.1203
     18 C12        -7.4820   -6.3507    1.6218 C.3       1 <0>         0.0004
     19 C13        -6.6657   -7.5972    1.2740 C.3       1 <0>         0.2708
     20 F1         -6.9838   -8.0163   -0.0222 F         1 <0>        -0.1960
     21 F2         -5.3013   -7.2960    1.3452 F         1 <0>        -0.2038
     22 C14        -2.1031   -1.2550   -2.5501 C.1       1 <0>         0.2889
     23 N4         -1.3256   -1.6015   -3.3023 N.1       1 <0>        -0.4669
     24 H1         -0.2577    2.6046    0.7874 H         1 <0>         0.0957
     25 H2         -1.9983    2.8403    0.4992 H         1 <0>         0.0869
     26 H3         -1.4462    1.5875    1.6368 H         1 <0>         0.0865
     27 H4         -4.6325   -2.1460   -2.3060 H         1 <0>         0.1252
     28 H5         -5.5514   -4.3018   -1.2857 H         1 <0>         0.0714
     29 H6         -4.7781   -3.1383   -0.1772 H         1 <0>         0.0961
     30 H7         -5.1725   -5.4064    0.8652 H         1 <0>         0.1022
     31 H8         -5.9852   -4.0786    1.7291 H         1 <0>         0.0429
     32 H9         -9.3049   -4.8685    0.4915 H         1 <0>         0.0854
     33 H10        -8.3472   -3.7711    1.5154 H         1 <0>         0.0424
     34 H11        -8.9200   -2.5985   -0.5415 H         1 <0>         0.0953
     35 H12        -8.2897   -3.9450   -1.5265 H         1 <0>         0.0695
     36 H13        -7.1725   -5.9741    2.5967 H         1 <0>         0.0679
     37 H14        -8.5412   -6.6064    1.6505 H         1 <0>         0.1026
     38 H15        -6.8993   -8.3934    1.9809 H         1 <0>         0.1099
@<TRIPOS>BOND
     1    1    2 1
     2    1   24 1
     3    1   25 1
     4    1   26 1
     5    2    3 1
     6    3    9 ar
     7    3    4 ar
     8    4    5 ar
     9    4   22 1
    10    5    6 ar
    11    5   27 1
    12    6    7 ar
    13    6   10 1
    14    7    8 1
    15    7    9 ar
    16   10   11 2
    17   10   12 am
    18   12   17 1
    19   12   13 1
    20   13   14 1
    21   13   28 1
    22   13   29 1
    23   14   15 1
    24   14   30 1
    25   14   31 1
    26   15   16 1
    27   15   18 1
    28   16   17 1
    29   16   32 1
    30   16   33 1
    31   17   34 1
    32   17   35 1
    33   18   19 1
    34   18   36 1
    35   18   37 1
    36   19   20 1
    37   19   21 1
    38   19   38 1
    39   22   23 3
@<TRIPOS>MOLECULE
ZINC65530460
   42    44     0     0     0
SMALL
USER_CHARGES

@<TRIPOS>ATOM
      1 C1         -0.0184    1.5028    0.0103 C.3       1 <0>        -0.0676
      2 C2          0.0021   -0.0041    0.0020 C.2       1 <0>         0.0589
      3 C3          0.0080   -0.8179   -1.1355 C.2       1 <0>        -0.2853
      4 C4          0.0279   -2.1072   -0.7249 C.2       1 <0>         0.0875
      5 N1          0.0343   -2.1090    0.6245 N.pl3     1 <0>        -0.3501
      6 N2          0.0231   -0.7768    1.0576 N.2       1 <0>        -0.2939
      7 C5          0.0548   -3.2948    1.4847 C.3       1 <0>         0.1898
      8 C6          1.4825   -3.6816    1.7729 C.ar      1 <0>        -0.2353
      9 C7          2.1431   -4.5580    0.9315 C.ar      1 <0>        -0.0571
     10 C8          3.4515   -4.9146    1.1927 C.ar      1 <0>        -0.1883
     11 C9          4.1039   -4.3919    2.3021 C.ar      1 <0>         0.2936
     12 C10         3.4374   -3.5118    3.1452 C.ar      1 <0>        -0.2680
     13 C11         2.1309   -3.1550    2.8750 C.ar      1 <0>        -0.0313
     14 N3          5.4270   -4.7508    2.5695 N.2       1 <0>        -1.0919
     15 S1          6.2031   -4.1266    3.8925 S.o2      1 <0>         2.6369
     16 O1          6.3389   -2.7309    3.6627 O.2       1 <0>        -1.0364
     17 O2          5.5409   -4.6495    5.0359 O.2       1 <0>        -1.0311
     18 C12         7.8329   -4.7959    3.9044 C.2       1 <0>        -0.7526
     19 C13         8.2305   -5.9829    4.5284 C.2       1 <0>         0.1311
     20 N4          9.5113   -6.1465    4.3173 N.2       1 <0>        -0.3084
     21 N5          9.9699   -5.0671    3.5510 N.pl3     1 <0>        -0.3774
     22 C14         8.9199   -4.2555    3.3065 C.2       1 <0>         0.1627
     23 C15        11.3454   -4.8592    3.0915 C.3       1 <0>         0.0976
     24 C16         0.0401   -3.3230   -1.6152 C.3       1 <0>        -0.0913
     25 H1          1.0042    1.8801    0.0026 H         1 <0>         0.0723
     26 H2         -0.5455    1.8639   -0.8728 H         1 <0>         0.0712
     27 H3         -0.5286    1.8543    0.9071 H         1 <0>         0.0674
     28 H4         -0.0021   -0.4776   -2.1604 H         1 <0>         0.1382
     29 H5         -0.4577   -3.0734    2.4209 H         1 <0>         0.0896
     30 H6         -0.4500   -4.1185    0.9800 H         1 <0>         0.0888
     31 H7          1.6351   -4.9643    0.0694 H         1 <0>         0.1026
     32 H8          3.9667   -5.5994    0.5354 H         1 <0>         0.1124
     33 H9          3.9417   -3.1039    4.0088 H         1 <0>         0.0987
     34 H10         1.6135   -2.4674    3.5276 H         1 <0>         0.1028
     35 H11         7.5908   -6.6493    5.0879 H         1 <0>         0.1940
     36 H12         8.9434   -3.3378    2.7377 H         1 <0>         0.1871
     37 H13        11.4779   -5.3293    2.1170 H         1 <0>         0.0765
     38 H14        11.5433   -3.7905    3.0092 H         1 <0>         0.0883
     39 H15        12.0383   -5.3030    3.8063 H         1 <0>         0.0890
     40 H16         1.0706   -3.6023   -1.8347 H         1 <0>         0.0818
     41 H17        -0.4602   -4.1488   -1.1093 H         1 <0>         0.0686
     42 H18        -0.4812   -3.0975   -2.5455 H         1 <0>         0.0787
@<TRIPOS>BOND
     1    1    2 1
     2    1   25 1
     3    1   26 1
     4    1   27 1
     5    2    6 2
     6    2    3 1
     7    3    4 2
     8    3   28 1
     9    4    5 1
    10    4   24 1
    11    5    6 1
    12    5    7 1
    13    7    8 1
    14    7   29 1
    15    7   30 1
    16    8   13 ar
    17    8    9 ar
    18    9   10 ar
    19    9   31 1
    20   10   11 ar
    21   10   32 1
    22   11   12 ar
    23   11   14 1
    24   12   13 ar
    25   12   33 1
    26   13   34 1
    27   14   15 1
    28   15   16 2
    29   15   17 2
    30   15   18 1
    31   18   22 2
    32   18   19 1
    33   19   20 2
    34   19   35 1
    35   20   21 1
    36   21   22 1
    37   21   23 1
    38   22   36 1
    39   23   37 1
    40   23   38 1
    41   23   39 1
    42   24   40 1
    43   24   41 1
    44   24   42 1
@<TRIPOS>MOLECULE
ZINC36968788
   40    41     0     0     0
SMALL
USER_CHARGES

@<TRIPOS>ATOM
      1 C1          7.1069    4.6641    2.2058 C.3       1 <0>        -0.1618
      2 C2          6.0476    3.7191    1.6349 C.3       1 <0>         0.1253
      3 C3          4.7426    4.4875    1.4175 C.3       1 <0>        -0.1617
      4 N1          6.5144    3.1778    0.3561 N.pl3     1 <0>        -0.4579
      5 C4          6.8431    3.8831   -0.7685 C.2       1 <0>         0.1531
      6 N2          7.2078    3.0207   -1.6745 N.2       1 <0>        -0.2911
      7 N3          7.1328    1.8273   -1.2033 N.2       1 <0>        -0.3042
      8 C5          6.7173    1.8647    0.0415 C.2       1 <0>         0.1512
      9 S1          6.4659    0.4819    1.1042 S.3       1 <0>         0.0748
     10 C6          6.9144   -0.9462    0.0795 C.3       1 <0>        -0.1327
     11 C7          6.7421   -2.2120    0.8789 C.2       1 <0>         0.5113
     12 O1          6.3549   -2.1562    2.0269 O.2       1 <0>        -0.4517
     13 N4          7.0183   -3.4061    0.3182 N.am      1 <0>        -0.5905
     14 C8          7.4024   -3.4976   -1.0970 C.3       1 <0>         0.1042
     15 C9          6.4807   -4.5032   -1.7941 C.3       1 <0>        -0.1320
     16 C10         6.5257   -5.8360   -1.0432 C.3       1 <0>        -0.1186
     17 C11         6.0249   -5.6338    0.3888 C.3       1 <0>        -0.1144
     18 C12         6.9469   -4.6404    1.1120 C.3       1 <0>         0.0745
     19 H1          7.9442   -5.0690    1.2115 H         1 <0>         0.0612
     20 C13         6.3882   -4.3314    2.4771 C.2       1 <0>         0.5183
     21 O2          5.2195   -4.0059    2.5981 O.co2     1 <0>        -0.6772
     22 O3          7.1049   -4.4071    3.4605 O.co2     1 <0>        -0.7028
     23 H2          8.0366    4.1166    2.3607 H         1 <0>         0.0675
     24 H3          7.2790    5.4820    1.5062 H         1 <0>         0.0651
     25 H4          6.7596    5.0668    3.1572 H         1 <0>         0.0829
     26 H5          5.8754    2.9012    2.3345 H         1 <0>         0.1108
     27 H6          4.9148    5.3054    0.7179 H         1 <0>         0.0650
     28 H7          3.9880    3.8143    1.0108 H         1 <0>         0.0676
     29 H8          4.3953    4.8903    2.3689 H         1 <0>         0.0829
     30 H9          6.8067    4.9563   -0.8843 H         1 <0>         0.2161
     31 H10         6.2694   -0.9804   -0.7985 H         1 <0>         0.1170
     32 H11         7.9536   -0.8547   -0.2365 H         1 <0>         0.1172
     33 H12         7.2990   -2.5199   -1.5677 H         1 <0>         0.0783
     34 H13         8.4361   -3.8349   -1.1740 H         1 <0>         0.0647
     35 H14         5.4600   -4.1208   -1.7957 H         1 <0>         0.0661
     36 H15         6.8154   -4.6525   -2.8207 H         1 <0>         0.0685
     37 H16         5.8897   -6.5607   -1.5514 H         1 <0>         0.0585
     38 H17         7.5509   -6.2056   -1.0206 H         1 <0>         0.0583
     39 H18         5.0085   -5.2407    0.3666 H         1 <0>         0.0724
     40 H19         6.0352   -6.5878    0.9159 H         1 <0>         0.0640
@<TRIPOS>BOND
     1    1    2 1
     2    1   23 1
     3    1   24 1
     4    1   25 1
     5    2    3 1
     6    2    4 1
     7    2   26 1
     8    3   27 1
     9    3   28 1
    10    3   29 1
    11    4    8 1
    12    4    5 1
    13    5    6 2
    14    5   30 1
    15    6    7 1
    16    7    8 2
    17    8    9 1
    18    9   10 1
    19   10   11 1
    20   10   31 1
    21   10   32 1
    22   11   12 2
    23   11   13 am
    24   13   18 1
    25   13   14 1
    26   14   15 1
    27   14   33 1
    28   14   34 1
    29   15   16 1
    30   15   35 1
    31   15   36 1
    32   16   17 1
    33   16   37 1
    34   16   38 1
    35   17   18 1
    36   17   39 1
    37   17   40 1
    38   18   19 1
    39   18   20 1
    40   20   21 2
    41   20   22 1
@<TRIPOS>MOLECULE
ZINC37656649
   40    41     0     0     0
SMALL
USER_CHARGES

@<TRIPOS>ATOM
      1 C1          0.4743    2.1860   -6.1030 C.3       1 <0>        -0.0691
      2 C2          0.2820    1.3348   -4.8744 C.2       1 <0>        -0.0093
      3 C3         -0.8564    0.7128   -4.5187 C.2       1 <0>        -0.2139
      4 C4         -0.5903    0.0322   -3.3083 C.2       1 <0>        -0.1958
      5 C5          0.6948    0.2791   -2.9968 C.2       1 <0>        -0.0190
      6 O1          1.2198    1.0639   -3.9520 O.3       1 <0>        -0.1605
      7 C6          1.4235   -0.2413   -1.7847 C.3       1 <0>         0.2009
      8 N1          2.0471   -1.5277   -2.1047 N.pl3     1 <0>        -0.9873
      9 C7          3.3668   -1.5642   -2.7397 C.3       1 <0>         0.0930
     10 S1          1.2602   -2.9406   -1.7486 S.o2      1 <0>         2.7686
     11 O2          2.1665   -3.9952   -2.0415 O.2       1 <0>        -0.9224
     12 O3          0.6804   -2.7696   -0.4626 O.2       1 <0>        -1.0114
     13 N2          0.0045   -3.0848   -2.8185 N.pl3     1 <0>        -0.9827
     14 C8         -1.3799   -3.1913   -2.3381 C.3       1 <0>         0.1166
     15 C9         -2.0207   -4.4393   -2.9532 C.3       1 <0>        -0.1282
     16 C10        -1.8870   -4.3784   -4.4766 C.3       1 <0>        -0.1132
     17 C11        -0.4055   -4.3573   -4.8599 C.3       1 <0>        -0.1134
     18 C12         0.2531   -3.1026   -4.2665 C.3       1 <0>         0.0935
     19 H1         -0.1769   -2.2106   -4.7221 H         1 <0>         0.0623
     20 C13         1.7375   -3.1393   -4.5238 C.2       1 <0>         0.4537
     21 O4          2.3837   -4.1291   -4.2252 O.co2     1 <0>        -0.6307
     22 O5          2.2922   -2.1791   -5.0306 O.co2     1 <0>        -0.6746
     23 H2          1.4997    2.5545   -6.1329 H         1 <0>         0.0721
     24 H3          0.2767    1.5890   -6.9933 H         1 <0>         0.0819
     25 H4         -0.2144    3.0303   -6.0715 H         1 <0>         0.0777
     26 H5         -1.7939    0.7304   -5.0545 H         1 <0>         0.1395
     27 H6         -1.2855   -0.5700   -2.7422 H         1 <0>         0.1415
     28 H7          2.1929    0.4720   -1.4893 H         1 <0>         0.0912
     29 H8          0.7171   -0.3738   -0.9652 H         1 <0>         0.1084
     30 H9          4.1399   -1.4792   -1.9761 H         1 <0>         0.0297
     31 H10         3.4866   -2.5062   -3.2748 H         1 <0>         0.1193
     32 H11         3.4557   -0.7343   -3.4407 H         1 <0>         0.0672
     33 H12        -1.3840   -3.2763   -1.2514 H         1 <0>         0.0846
     34 H13        -1.9403   -2.3064   -2.6396 H         1 <0>         0.0592
     35 H14        -1.5155   -5.3297   -2.5790 H         1 <0>         0.0647
     36 H15        -3.0757   -4.4779   -2.6819 H         1 <0>         0.0648
     37 H16        -2.3640   -5.2533   -4.9183 H         1 <0>         0.0546
     38 H17        -2.3711   -3.4750   -4.8477 H         1 <0>         0.0557
     39 H18         0.0845   -5.2484   -4.4677 H         1 <0>         0.0730
     40 H19        -0.3109   -4.3375   -5.9456 H         1 <0>         0.0577
@<TRIPOS>BOND
     1    1    2 1
     2    1   23 1
     3    1   24 1
     4    1   25 1
     5    2    6 1
     6    2    3 2
     7    3    4 1
     8    3   26 1
     9    4    5 2
    10    4   27 1
    11    5    6 1
    12    5    7 1
    13    7    8 1
    14    7   28 1
    15    7   29 1
    16    8    9 1
    17    8   10 1
    18    9   30 1
    19    9   31 1
    20    9   32 1
    21   10   11 2
    22   10   12 2
    23   10   13 1
    24   13   18 1
    25   13   14 1
    26   14   15 1
    27   14   33 1
    28   14   34 1
    29   15   16 1
    30   15   35 1
    31   15   36 1
    32   16   17 1
    33   16   37 1
    34   16   38 1
    35   17   18 1
    36   17   39 1
    37   17   40 1
    38   18   19 1
    39   18   20 1
    40   20   21 2
    41   20   22 1
@<TRIPOS>MOLECULE
ZINC48964684
   44    45     0     0     0
SMALL
USER_CHARGES

@<TRIPOS>ATOM
      1 C1         -0.0079   -0.0753    0.5066 C.3       1 <0>        -0.1506
      2 C2          0.8048   -1.2986    0.0776 C.3       1 <0>         0.1318
      3 N1          1.9210   -1.4936    1.0061 N.pl3     1 <0>        -0.9897
      4 C3          1.6837   -2.0952    2.3207 C.3       1 <0>         0.1203
      5 C4          1.7125   -3.6199    2.1965 C.3       1 <0>         0.0562
      6 H1          1.0070   -3.9417    1.4305 H         1 <0>         0.0810
      7 C5          1.3442   -4.2627    3.5510 C.3       1 <0>        -0.1480
      8 C6          2.3150   -5.4732    3.6161 C.3       1 <0>        -0.1572
      9 C7          3.5592   -4.8913    2.8991 C.3       1 <0>         0.0524
     10 O1          3.0336   -4.0546    1.8539 O.3       1 <0>        -0.3488
     11 S1          3.4509   -1.0340    0.5698 S.o2      1 <0>         2.7758
     12 O2          4.3428   -1.9482    1.1927 O.2       1 <0>        -0.9855
     13 O3          3.4283   -0.8300   -0.8363 O.2       1 <0>        -0.9265
     14 N2          3.7327    0.4455    1.2582 N.pl3     1 <0>        -0.9876
     15 C8          4.1374    0.5510    2.6667 C.3       1 <0>         0.1237
     16 C9          3.1817    1.5097    3.3839 C.3       1 <0>        -0.1300
     17 C10         3.1501    2.8453    2.6373 C.3       1 <0>        -0.1145
     18 C11         2.6339    2.6238    1.2137 C.3       1 <0>        -0.1144
     19 C12         3.5888    1.6774    0.4705 C.3       1 <0>         0.0809
     20 H2          4.5627    2.1531    0.3549 H         1 <0>         0.0595
     21 C13         3.0210    1.3463   -0.8857 C.2       1 <0>         0.5055
     22 O4          1.9355    0.7984   -0.9748 O.co2     1 <0>        -0.6707
     23 O5          3.6471    1.6264   -1.8936 O.co2     1 <0>        -0.6812
     24 H3          0.6546    0.7846    0.6051 H         1 <0>         0.0892
     25 H4         -0.7692    0.1366   -0.2440 H         1 <0>         0.0489
     26 H5         -0.4879   -0.2757    1.4645 H         1 <0>         0.0196
     27 H6          0.1654   -2.1813    0.0876 H         1 <0>         0.0420
     28 H7          1.1926   -1.1424   -0.9291 H         1 <0>         0.1181
     29 H8          2.4608   -1.7724    3.0136 H         1 <0>         0.0693
     30 H9          0.7097   -1.7794    2.6943 H         1 <0>         0.0793
     31 H10         1.5312   -3.5709    4.3723 H         1 <0>         0.0769
     32 H11         0.3067   -4.5969    3.5524 H         1 <0>         0.0795
     33 H12         2.5443   -5.7378    4.6483 H         1 <0>         0.0785
     34 H13         1.9130   -6.3287    3.0732 H         1 <0>         0.0749
     35 H14         4.1546   -4.2999    3.5947 H         1 <0>         0.0579
     36 H15         4.1606   -5.6945    2.4732 H         1 <0>         0.0790
     37 H16         4.0888   -0.4319    3.1354 H         1 <0>         0.0724
     38 H17         5.1551    0.9367    2.7266 H         1 <0>         0.0609
     39 H18         2.1805    1.0794    3.4021 H         1 <0>         0.0635
     40 H19         3.5273    1.6718    4.4049 H         1 <0>         0.0627
     41 H20         2.4897    3.5377    3.1594 H         1 <0>         0.0548
     42 H21         4.1560    3.2632    2.5979 H         1 <0>         0.0567
     43 H22         1.6378    2.1830    1.2524 H         1 <0>         0.0722
     44 H23         2.5895    3.5788    0.6901 H         1 <0>         0.0608
@<TRIPOS>BOND
     1    1    2 1
     2    1   24 1
     3    1   25 1
     4    1   26 1
     5    2    3 1
     6    2   27 1
     7    2   28 1
     8    3    4 1
     9    3   11 1
    10    4    5 1
    11    4   29 1
    12    4   30 1
    13    5    6 1
    14    5   10 1
    15    5    7 1
    16    7    8 1
    17    7   31 1
    18    7   32 1
    19    8    9 1
    20    8   33 1
    21    8   34 1
    22    9   10 1
    23    9   35 1
    24    9   36 1
    25   11   12 2
    26   11   13 2
    27   11   14 1
    28   14   19 1
    29   14   15 1
    30   15   16 1
    31   15   37 1
    32   15   38 1
    33   16   17 1
    34   16   39 1
    35   16   40 1
    36   17   18 1
    37   17   41 1
    38   17   42 1
    39   18   19 1
    40   18   43 1
    41   18   44 1
    42   19   20 1
    43   19   21 1
    44   21   22 2
    45   21   23 1
@<TRIPOS>MOLECULE
ZINC61215878
   41    41     0     0     0
SMALL
USER_CHARGES

@<TRIPOS>ATOM
      1 C1         -0.0187    1.5258    0.0104 C.3       1 <0>        -0.1810
      2 C2          0.0021   -0.0041    0.0020 C.3       1 <0>         0.1043
      3 N1          0.7106   -0.4894    1.1889 N.am      1 <0>        -0.5938
      4 C3         -0.0276   -0.7504    2.4271 C.3       1 <0>         0.1410
      5 C4         -0.5106   -2.2021    2.4365 C.3       1 <0>        -0.1700
      6 H1         -1.0910   -2.3978    1.5349 H         1 <0>         0.0607
      7 C5          0.6968   -3.1410    2.4796 C.3       1 <0>        -0.1138
      8 C6         -1.3729   -2.4368    3.6499 C.2       1 <0>         0.5014
      9 O1         -1.5818   -1.5272    4.4344 O.co2     1 <0>        -0.6993
     10 O2         -1.8616   -3.5363    3.8471 O.co2     1 <0>        -0.6982
     11 C7          2.0417   -0.6957    1.1417 C.2       1 <0>         0.5668
     12 O3          2.6298   -1.0986    2.1269 O.2       1 <0>        -0.5126
     13 C8          2.7845   -0.4331   -0.1041 C.ar      1 <0>        -0.2104
     14 C9          3.3398    0.8236   -0.3597 C.ar      1 <0>         0.2274
     15 N2          3.9987    1.0156   -1.4897 N.ar      1 <0>        -0.5267
     16 C10         4.1385    0.0451   -2.3733 C.ar      1 <0>         0.3405
     17 N3          3.6353   -1.1562   -2.1825 N.ar      1 <0>        -0.5309
     18 C11         2.9613   -1.4448   -1.0719 C.ar      1 <0>         0.1874
     19 S1          2.2968   -3.0568   -0.8178 S.3       1 <0>        -0.0102
     20 C12         2.7809   -3.9710   -2.3080 C.3       1 <0>        -0.1475
     21 C13         4.8998    0.3218   -3.6441 C.3       1 <0>        -0.0836
     22 C14         3.1895    1.9433    0.6377 C.3       1 <0>        -0.1177
     23 H2          1.0039    1.9031    0.0027 H         1 <0>         0.0603
     24 H3         -0.5459    1.8868   -0.8726 H         1 <0>         0.0647
     25 H4         -0.5289    1.8773    0.9072 H         1 <0>         0.0670
     26 H5         -1.0205   -0.3814    0.0098 H         1 <0>         0.0864
     27 H6          0.5123   -0.3556   -0.8948 H         1 <0>         0.0648
     28 H7          0.6257   -0.5792    3.2826 H         1 <0>         0.0846
     29 H8         -0.8862   -0.0815    2.4860 H         1 <0>         0.0806
     30 H9          1.2772   -2.9453    3.3812 H         1 <0>         0.0480
     31 H10         0.3527   -4.1752    2.4863 H         1 <0>         0.0471
     32 H11         1.3205   -2.9712    1.6019 H         1 <0>         0.0431
     33 H12         2.3558   -3.4853   -3.1863 H         1 <0>         0.0885
     34 H13         3.8677   -3.9830   -2.3898 H         1 <0>         0.0882
     35 H14         2.4100   -4.9939   -2.2432 H         1 <0>         0.1095
     36 H15         5.9553    0.0965   -3.4917 H         1 <0>         0.0871
     37 H16         4.5071   -0.3029   -4.4463 H         1 <0>         0.0851
     38 H17         4.7876    1.3720   -3.9134 H         1 <0>         0.0878
     39 H18         4.0250    1.9214    1.3373 H         1 <0>         0.0938
     40 H19         3.1800    2.8986    0.1128 H         1 <0>         0.0900
     41 H20         2.2546    1.8199    1.1844 H         1 <0>         0.0895
@<TRIPOS>BOND
     1    1    2 1
     2    1   23 1
     3    1   24 1
     4    1   25 1
     5    2    3 1
     6    2   26 1
     7    2   27 1
     8    3    4 1
     9    3   11 am
    10    4    5 1
    11    4   28 1
    12    4   29 1
    13    5    6 1
    14    5    7 1
    15    5    8 1
    16    7   30 1
    17    7   31 1
    18    7   32 1
    19    8    9 2
    20    8   10 1
    21   11   12 2
    22   11   13 1
    23   13   18 ar
    24   13   14 ar
    25   14   15 ar
    26   14   22 1
    27   15   16 ar
    28   16   17 ar
    29   16   21 1
    30   17   18 ar
    31   18   19 1
    32   19   20 1
    33   20   33 1
    34   20   34 1
    35   20   35 1
    36   21   36 1
    37   21   37 1
    38   21   38 1
    39   22   39 1
    40   22   40 1
    41   22   41 1
@<TRIPOS>MOLECULE
ZINC63142769
   37    37     0     0     0
SMALL
USER_CHARGES

@<TRIPOS>ATOM
      1 C1         -0.0187    1.5258    0.0104 C.3       1 <0>        -0.1303
      2 C2          0.0021   -0.0041    0.0020 C.3       1 <0>        -0.1454
      3 C3          0.7218   -0.4982   -1.2549 C.3       1 <0>        -0.0893
      4 C4          2.1469    0.0591   -1.2812 C.3       1 <0>        -0.1393
      5 C5          2.9120   -0.4483   -0.0548 C.3       1 <0>         0.1215
      6 N1          2.1511   -0.1028    1.1536 N.pl3     1 <0>        -0.9916
      7 C6          0.7429   -0.5122    1.2429 C.3       1 <0>         0.1492
      8 S1          2.8673    0.7317    2.3918 S.o2      1 <0>         2.6190
      9 O1          2.1321    0.3630    3.5505 O.2       1 <0>        -0.9447
     10 O2          4.2505    0.4250    2.2834 O.2       1 <0>        -0.9570
     11 C7          2.5826    2.4802    2.0014 C.3       1 <0>        -0.6419
     12 C8          3.2083    3.3543    3.0901 C.3       1 <0>        -0.6077
     13 S2          2.9237    5.1028    2.6998 S.o2      1 <0>         2.4295
     14 O3          3.6288    5.4176    1.5069 O.2       1 <0>        -0.9328
     15 O4          1.5269    5.3561    2.7641 O.2       1 <0>        -0.9274
     16 C9          3.7263    5.9581    4.0835 C.3       1 <0>        -0.6581
     17 C10        -1.4115   -0.5263    0.0111 C.2       1 <0>         0.5064
     18 O5         -2.1740   -0.2375   -0.8954 O.co2     1 <0>        -0.6922
     19 O6         -1.7927   -1.2377    0.9249 O.co2     1 <0>        -0.6940
     20 H1          1.0039    1.9031    0.0027 H         1 <0>         0.0398
     21 H2         -0.5459    1.8868   -0.8726 H         1 <0>         0.0632
     22 H3         -0.5289    1.8773    0.9072 H         1 <0>         0.0470
     23 H4          0.7580   -1.5876   -1.2480 H         1 <0>         0.0562
     24 H5          0.1828   -0.1586   -2.1393 H         1 <0>         0.0684
     25 H6          2.6512   -0.2742   -2.1882 H         1 <0>         0.0697
     26 H7          2.1119    1.1484   -1.2631 H         1 <0>         0.0669
     27 H8          3.0265   -1.5305   -0.1176 H         1 <0>         0.0743
     28 H9          3.8939    0.0234   -0.0157 H         1 <0>         0.0836
     29 H10         0.2935   -0.0826    2.1382 H         1 <0>         0.0886
     30 H11         0.6805   -1.5996    1.2860 H         1 <0>         0.0800
     31 H12         3.0378    2.7165    1.0395 H         1 <0>         0.1478
     32 H13         1.5107    2.6719    1.9529 H         1 <0>         0.1522
     33 H14         2.7532    3.1180    4.0520 H         1 <0>         0.1477
     34 H15         4.2802    3.1627    3.1386 H         1 <0>         0.1459
     35 H16         4.7848    5.6989    4.1061 H         1 <0>         0.1303
     36 H17         3.6187    7.0353    3.9563 H         1 <0>         0.1328
     37 H18         3.2577    5.6542    5.0195 H         1 <0>         0.1314
@<TRIPOS>BOND
     1    1    2 1
     2    1   20 1
     3    1   21 1
     4    1   22 1
     5    2    7 1
     6    2    3 1
     7    2   17 1
     8    3    4 1
     9    3   23 1
    10    3   24 1
    11    4    5 1
    12    4   25 1
    13    4   26 1
    14    5    6 1
    15    5   27 1
    16    5   28 1
    17    6    7 1
    18    6    8 1
    19    7   29 1
    20    7   30 1
    21    8    9 2
    22    8   10 2
    23    8   11 1
    24   11   12 1
    25   11   31 1
    26   11   32 1
    27   12   13 1
    28   12   33 1
    29   12   34 1
    30   13   14 2
    31   13   15 2
    32   13   16 1
    33   16   35 1
    34   16   36 1
    35   16   37 1
    36   17   18 2
    37   17   19 1
@<TRIPOS>MOLECULE
ZINC13408036
   47    49     0     0     0
SMALL
USER_CHARGES
(2S)-1-[2-[(4-cyclopropyl-5-isopropyl-1,2,4-triazol-3-yl)sulfanyl]acetyl]piperidine-2-carboxylic acid
@<TRIPOS>ATOM
      1 C1          3.5469    4.4517    5.7359 C.3       1 <0>        -0.1420
      2 C2          3.2622    5.5876    4.7513 C.3       1 <0>        -0.0018
      3 C3          4.5533    6.3620    4.4790 C.3       1 <0>        -0.1411
      4 C4          2.7389    5.0136    3.4599 C.2       1 <0>         0.1857
      5 N1          3.3598    4.1742    2.6803 N.2       1 <0>        -0.2814
      6 N2          2.6264    3.8912    1.6635 N.2       1 <0>        -0.2956
      7 C5          1.4880    4.5406    1.7401 C.2       1 <0>         0.1434
      8 N3          1.5268    5.2818    2.8861 N.pl3     1 <0>        -0.4338
      9 C6          0.4848    6.1760    3.3970 C.3       1 <0>         0.0444
     10 C7         -0.9229    6.0241    2.8173 C.3       1 <0>        -0.1726
     11 C8         -0.0675    7.2357    2.4415 C.3       1 <0>        -0.1707
     12 S1          0.1638    4.4742    0.5797 S.3       1 <0>         0.0944
     13 C9          0.8589    3.3154   -0.6245 C.3       1 <0>        -0.1532
     14 C10        -0.1287    3.0998   -1.7422 C.2       1 <0>         0.5070
     15 O1         -1.1973    3.6731   -1.7262 O.2       1 <0>        -0.4492
     16 N4          0.1756    2.2698   -2.7595 N.am      1 <0>        -0.5975
     17 C11         1.5072    1.6559   -2.8521 C.3       1 <0>         0.1066
     18 C12         1.3428    0.1379   -2.9761 C.3       1 <0>        -0.1331
     19 C13         0.4221   -0.1767   -4.1574 C.3       1 <0>        -0.1169
     20 C14        -0.9566    0.4399   -3.9102 C.3       1 <0>        -0.1168
     21 C15        -0.8200    1.9569   -3.7937 C.3       1 <0>         0.1024
     22 H1         -0.4945    2.3662   -4.7501 H         1 <0>         0.0686
     23 C16        -2.1499    2.5541   -3.4119 C.2       1 <0>         0.4808
     24 O2         -2.5986    2.3716   -2.3050 O.co2     1 <0>        -0.6062
     25 H2          2.6271    3.8999    5.9299 H         1 <0>         0.0554
     26 H3          4.2910    3.7790    5.3094 H         1 <0>         0.0694
     27 H4          3.9255    4.8668    6.6700 H         1 <0>         0.0668
     28 H5          2.5182    6.2602    5.1778 H         1 <0>         0.0839
     29 H6          4.3505    7.1713    3.7775 H         1 <0>         0.0554
     30 H7          4.9319    6.7772    5.4130 H         1 <0>         0.0667
     31 H8          5.2974    5.6894    4.0524 H         1 <0>         0.0691
     32 H9          0.5696    6.4433    4.4503 H         1 <0>         0.1494
     33 H10        -1.0738    5.2589    2.0558 H         1 <0>         0.1222
     34 H11        -1.7647    6.1914    3.4893 H         1 <0>         0.1209
     35 H12        -0.3464    8.2000    2.8662 H         1 <0>         0.1156
     36 H13         0.3444    7.2675    1.4328 H         1 <0>         0.1098
     37 H14         1.0670    2.3640   -0.1350 H         1 <0>         0.1150
     38 H15         1.7837    3.7249   -1.0308 H         1 <0>         0.1144
     39 H16         2.0264    2.0401   -3.7301 H         1 <0>         0.0645
     40 H17         2.0813    1.8914   -1.9560 H         1 <0>         0.0798
     41 H18         2.3173   -0.3213   -3.1421 H         1 <0>         0.0693
     42 H19         0.9061   -0.2569   -2.0587 H         1 <0>         0.0658
     43 H20         0.8477    0.2397   -5.0704 H         1 <0>         0.0610
     44 H21         0.3229   -1.2571   -4.2629 H         1 <0>         0.0604
     45 H22        -1.6186    0.1957   -4.7410 H         1 <0>         0.0704
     46 H23        -1.3724    0.0419   -2.9845 H         1 <0>         0.0674
     47 O3         -2.8359    3.2888   -4.3014 O.co2     1 <0>        -0.7738
@<TRIPOS>BOND
     1    1    2 1
     2    1   25 1
     3    1   26 1
     4    1   27 1
     5    2    3 1
     6    2    4 1
     7    2   28 1
     8    3   29 1
     9    3   30 1
    10    3   31 1
    11    4    8 1
    12    4    5 2
    13    5    6 1
    14    6    7 2
    15    7    8 1
    16    7   12 1
    17    8    9 1
    18    9   11 1
    19    9   10 1
    20    9   32 1
    21   10   11 1
    22   10   33 1
    23   10   34 1
    24   11   35 1
    25   11   36 1
    26   12   13 1
    27   13   14 1
    28   13   37 1
    29   13   38 1
    30   14   15 2
    31   14   16 am
    32   16   21 1
    33   16   17 1
    34   17   18 1
    35   17   39 1
    36   17   40 1
    37   18   19 1
    38   18   41 1
    39   18   42 1
    40   19   20 1
    41   19   43 1
    42   19   44 1
    43   20   21 1
    44   20   45 1
    45   20   46 1
    46   21   22 1
    47   21   23 1
    48   23   24 2
    49   23   47 1
@<TRIPOS>MOLECULE
ZINC36870556
   38    39     0     0     0
SMALL
USER_CHARGES

@<TRIPOS>ATOM
      1 C1          0.3414   -2.8692    0.4140 C.3       1 <0>        -0.1686
      2 C2         -1.1466   -3.0645    0.7120 C.3       1 <0>         0.0994
      3 N1         -1.8841   -1.8587    0.3269 N.pl3     1 <0>        -0.4913
      4 C3         -2.2064   -0.8173    1.1502 C.2       1 <0>         0.4396
      5 N2         -2.8631    0.0696    0.4439 N.2       1 <0>        -0.3101
      6 N3         -2.9670   -0.4120   -0.8677 N.2       1 <0>        -0.3282
      7 C4         -2.3655   -1.5755   -0.9205 C.2       1 <0>         0.2066
      8 S1         -2.2084   -2.5966   -2.3479 S.3       1 <0>         0.0425
      9 C5         -3.0497   -1.6587   -3.6531 C.3       1 <0>        -0.1627
     10 C6         -2.9878   -2.4307   -4.9459 C.2       1 <0>         0.5156
     11 O1         -2.4281   -3.5132   -4.9833 O.co2     1 <0>        -0.6751
     12 O2         -3.4975   -1.9728   -5.9543 O.co2     1 <0>        -0.6745
     13 N4         -1.8931   -0.7165    2.4996 N.pl3     1 <0>        -0.6081
     14 C7         -0.6303   -0.1004    2.9144 C.3       1 <0>         0.1082
     15 C8         -2.8255   -1.2262    3.5081 C.3       1 <0>         0.1721
     16 H1         -3.7095   -1.6351    3.0188 H         1 <0>         0.1054
     17 C9         -3.2368   -0.0885    4.4573 C.3       1 <0>        -0.1373
     18 C10        -3.9540   -0.6706    5.6992 C.3       1 <0>        -0.5735
     19 S2         -3.2146   -2.3484    5.8431 S.o2      1 <0>         2.3720
     20 O3         -4.2355   -3.3205    5.6643 O.2       1 <0>        -0.9319
     21 O4         -2.3995   -2.3962    7.0062 O.2       1 <0>        -0.9362
     22 C11        -2.1325   -2.3338    4.3521 C.3       1 <0>        -0.6022
     23 H2          0.8901   -3.7663    0.7005 H         1 <0>         0.0774
     24 H3          0.4773   -2.6849   -0.6517 H         1 <0>         0.0724
     25 H4          0.7166   -2.0171    0.9808 H         1 <0>         0.0569
     26 H5         -1.5219   -3.9165    0.1452 H         1 <0>         0.0981
     27 H6         -1.2825   -3.2487    1.7777 H         1 <0>         0.0904
     28 H7         -4.0913   -1.5012   -3.3734 H         1 <0>         0.0916
     29 H8         -2.5582   -0.6944   -3.7819 H         1 <0>         0.0915
     30 H9         -0.7959    0.9540    3.1359 H         1 <0>         0.0536
     31 H10        -0.2556   -0.6043    3.8053 H         1 <0>         0.0680
     32 H11         0.1001   -0.1924    2.1106 H         1 <0>         0.0659
     33 H12        -2.3481    0.4567    4.7752 H         1 <0>         0.0925
     34 H13        -3.9104    0.5918    3.9362 H         1 <0>         0.1047
     35 H14        -3.7365   -0.0750    6.5857 H         1 <0>         0.1439
     36 H15        -5.0288   -0.7352    5.5298 H         1 <0>         0.1415
     37 H16        -2.1572   -3.2946    3.8380 H         1 <0>         0.1436
     38 H17        -1.1111   -2.0527    4.6089 H         1 <0>         0.1462
@<TRIPOS>BOND
     1    1    2 1
     2    1   23 1
     3    1   24 1
     4    1   25 1
     5    2    3 1
     6    2   26 1
     7    2   27 1
     8    3    7 1
     9    3    4 1
    10    4    5 2
    11    4   13 1
    12    5    6 1
    13    6    7 2
    14    7    8 1
    15    8    9 1
    16    9   10 1
    17    9   28 1
    18    9   29 1
    19   10   11 2
    20   10   12 1
    21   13   14 1
    22   13   15 1
    23   14   30 1
    24   14   31 1
    25   14   32 1
    26   15   16 1
    27   15   22 1
    28   15   17 1
    29   17   18 1
    30   17   33 1
    31   17   34 1
    32   18   19 1
    33   18   35 1
    34   18   36 1
    35   19   20 2
    36   19   21 2
    37   19   22 1
    38   22   37 1
    39   22   38 1
@<TRIPOS>MOLECULE
ZINC48648224
   38    40     0     0     0
SMALL
USER_CHARGES

@<TRIPOS>ATOM
      1 C1         -0.0178    1.4608    0.0101 C.3       1 <0>         0.0973
      2 N1          0.0021   -0.0041    0.0020 N.pl3     1 <0>        -0.3764
      3 C2          0.0078   -0.7920   -1.0936 C.2       1 <0>         0.1653
      4 C3          0.0272   -2.0789   -0.6760 C.2       1 <0>        -0.7669
      5 C4          0.0335   -2.0775    0.7227 C.2       1 <0>         0.1327
      6 N2          0.0246   -0.8342    1.1302 N.2       1 <0>        -0.3070
      7 S1          0.0410   -3.5046   -1.7112 S.o2      1 <0>         2.6839
      8 O1         -0.4917   -4.5722   -0.9393 O.2       1 <0>        -1.0066
      9 O2         -0.5215   -3.1090   -2.9547 O.2       1 <0>        -1.0127
     10 N3          1.6266   -3.8796   -2.0070 N.2       1 <0>        -1.0584
     11 C5          1.9246   -4.9014   -2.7532 C.2       1 <0>         0.5168
     12 O3          0.9396   -5.6583   -3.2881 O.3       1 <0>        -0.7132
     13 C6          3.3417   -5.2366   -3.0176 C.ar      1 <0>        -0.0415
     14 C7          4.3599   -4.4613   -2.4627 C.ar      1 <0>        -0.0705
     15 C8          5.6792   -4.7788   -2.7129 C.ar      1 <0>        -0.1036
     16 C9          5.9929   -5.8633   -3.5125 C.ar      1 <0>        -0.1156
     17 C10         4.9876   -6.6360   -4.0657 C.ar      1 <0>        -0.1177
     18 C11         3.6646   -6.3325   -3.8180 C.ar      1 <0>        -0.0798
     19 C12         7.4359   -6.2039   -3.7825 C.3       1 <0>         0.1780
     20 N4          7.9191   -7.1310   -2.7563 N.pl3     1 <0>        -0.3636
     21 C13         8.4908   -8.3331   -2.9781 C.2       1 <0>         0.0489
     22 C14         8.7939   -8.8739   -1.7753 C.2       1 <0>        -0.2792
     23 C15         8.3937   -7.9715   -0.7845 C.2       1 <0>         0.0364
     24 N5          7.8746   -6.9237   -1.3716 N.2       1 <0>        -0.2814
     25 H1          1.0048    1.8381    0.0023 H         1 <0>         0.0768
     26 H2         -0.5450    1.8219   -0.8730 H         1 <0>         0.0887
     27 H3         -0.5280    1.8123    0.9069 H         1 <0>         0.0892
     28 H4         -0.0017   -0.4556   -2.1198 H         1 <0>         0.1883
     29 H5          0.0482   -2.9516    1.3568 H         1 <0>         0.1951
     30 H6          4.1162   -3.6140   -1.8388 H         1 <0>         0.1408
     31 H7          6.4685   -4.1794   -2.2838 H         1 <0>         0.1200
     32 H8          5.2389   -7.4814   -4.6892 H         1 <0>         0.1168
     33 H9          2.8807   -6.9393   -4.2465 H         1 <0>         0.1342
     34 H10         7.5215   -6.6711   -4.7636 H         1 <0>         0.1015
     35 H11         8.0345   -5.2932   -3.7603 H         1 <0>         0.0905
     36 H12         8.6734   -8.7830   -3.9428 H         1 <0>         0.1704
     37 H13         9.2617   -9.8332   -1.6097 H         1 <0>         0.1432
     38 H14         8.4994   -8.1129    0.2810 H         1 <0>         0.1793
@<TRIPOS>BOND
     1    1    2 1
     2    1   25 1
     3    1   26 1
     4    1   27 1
     5    2    6 1
     6    2    3 1
     7    3    4 2
     8    3   28 1
     9    4    5 1
    10    4    7 1
    11    5    6 2
    12    5   29 1
    13    7    8 2
    14    7    9 2
    15    7   10 1
    16   10   11 2
    17   11   12 1
    18   11   13 1
    19   13   18 ar
    20   13   14 ar
    21   14   15 ar
    22   14   30 1
    23   15   16 ar
    24   15   31 1
    25   16   17 ar
    26   16   19 1
    27   17   18 ar
    28   17   32 1
    29   18   33 1
    30   19   20 1
    31   19   34 1
    32   19   35 1
    33   20   24 1
    34   20   21 1
    35   21   22 2
    36   21   36 1
    37   22   23 1
    38   22   37 1
    39   23   24 2
    40   23   38 1
@<TRIPOS>MOLECULE
ZINC62132665
   40    41     0     0     0
SMALL
USER_CHARGES

@<TRIPOS>ATOM
      1 C1         -0.0173    1.4248    0.0099 C.3       1 <0>         0.0328
      2 O1          0.0021   -0.0041    0.0020 O.3       1 <0>        -0.3532
      3 C2         -1.1855   -0.6297    0.0100 C.2       1 <0>         0.4647
      4 O2         -2.2076    0.0145    0.0232 O.2       1 <0>        -0.5037
      5 C3         -1.2439   -2.1355    0.0025 C.3       1 <0>        -0.0778
      6 C4         -0.5532   -2.6663   -1.2558 C.3       1 <0>        -0.1221
      7 C5         -0.5841   -4.1978   -1.2430 C.3       1 <0>         0.1203
      8 N1         -1.9760   -4.6415   -1.0859 N.pl3     1 <0>        -1.0097
      9 C6         -2.7608   -4.1198    0.0413 C.3       1 <0>         0.1184
     10 C7         -2.7055   -2.5891    0.0140 C.3       1 <0>        -0.1154
     11 S1         -2.6475   -5.7088   -2.1593 S.o2      1 <0>         2.7980
     12 O3         -4.0536   -5.5115   -2.1024 O.2       1 <0>        -0.9730
     13 O4         -1.9096   -5.5880   -3.3677 O.2       1 <0>        -0.9790
     14 N2         -2.3596   -7.2329   -1.5793 N.pl3     1 <0>        -1.0174
     15 C8         -1.1760   -8.0580   -1.8819 C.3       1 <0>         0.1218
     16 C9         -1.0616   -9.0399   -0.6892 C.3       1 <0>        -0.1053
     17 C10        -2.5540   -9.3378   -0.3868 C.3       1 <0>        -0.1637
     18 H1         -2.9344  -10.1144   -1.0504 H         1 <0>         0.0758
     19 C11        -3.2391   -7.9849   -0.6723 C.3       1 <0>         0.1474
     20 C12        -2.7369   -9.7349    1.0554 C.2       1 <0>         0.5018
     21 O5         -1.7700   -9.8097    1.7944 O.co2     1 <0>        -0.6912
     22 O6         -3.8516   -9.9813    1.4832 O.co2     1 <0>        -0.6962
     23 H2          1.0053    1.8021    0.0021 H         1 <0>         0.1011
     24 H3         -0.5445    1.7859   -0.8732 H         1 <0>         0.0594
     25 H4         -0.5275    1.7763    0.9067 H         1 <0>         0.0596
     26 H5         -0.7365   -2.5230    0.8859 H         1 <0>         0.1153
     27 H6         -1.0752   -2.2993   -2.1396 H         1 <0>         0.0740
     28 H7          0.4812   -2.3234   -1.2751 H         1 <0>         0.0902
     29 H8         -0.1827   -4.5793   -2.1818 H         1 <0>         0.0977
     30 H9          0.0137   -4.5684   -0.4102 H         1 <0>         0.0762
     31 H10        -3.7956   -4.4497   -0.0503 H         1 <0>         0.1006
     32 H11        -2.3405   -4.4839    0.9787 H         1 <0>         0.0767
     33 H12        -3.2030   -2.1913    0.8985 H         1 <0>         0.0866
     34 H13        -3.2072   -2.2228   -0.8817 H         1 <0>         0.0777
     35 H14        -1.3237   -8.6066   -2.8121 H         1 <0>         0.0636
     36 H15        -0.2848   -7.4338   -1.9461 H         1 <0>         0.0652
     37 H16        -0.5331   -9.9478   -0.9799 H         1 <0>         0.0716
     38 H17        -0.5776   -8.5640    0.1636 H         1 <0>         0.0836
     39 H18        -3.3731   -7.4316    0.2573 H         1 <0>         0.0620
     40 H19        -4.2051   -8.1538   -1.1481 H         1 <0>         0.0657
@<TRIPOS>BOND
     1    1    2 1
     2    1   23 1
     3    1   24 1
     4    1   25 1
     5    2    3 1
     6    3    4 2
     7    3    5 1
     8    5   10 1
     9    5    6 1
    10    5   26 1
    11    6    7 1
    12    6   27 1
    13    6   28 1
    14    7    8 1
    15    7   29 1
    16    7   30 1
    17    8    9 1
    18    8   11 1
    19    9   10 1
    20    9   31 1
    21    9   32 1
    22   10   33 1
    23   10   34 1
    24   11   12 2
    25   11   13 2
    26   11   14 1
    27   14   19 1
    28   14   15 1
    29   15   16 1
    30   15   35 1
    31   15   36 1
    32   16   17 1
    33   16   37 1
    34   16   38 1
    35   17   18 1
    36   17   19 1
    37   17   20 1
    38   19   39 1
    39   19   40 1
    40   20   21 2
    41   20   22 1
@<TRIPOS>MOLECULE
ZINC64918235
   46    48     0     0     0
SMALL
USER_CHARGES

@<TRIPOS>ATOM
      1 C1         -0.1242    1.7833   -0.0161 C.3       1 <0>        -0.6375
      2 S1         -0.0918   -0.0303   -0.0310 S.o2      1 <0>         2.5251
      3 O1          0.7266   -0.5139    1.0252 O.2       1 <0>        -1.0310
      4 O2         -1.4035   -0.5418   -0.2235 O.2       1 <0>        -1.0312
      5 N1          0.7248   -0.4299   -1.4152 N.2       1 <0>        -1.0960
      6 C2          0.9330   -1.7722   -1.7403 C.ar      1 <0>         0.2993
      7 C3          0.4496   -2.7704   -0.9049 C.ar      1 <0>        -0.2684
      8 C4          0.6545   -4.0988   -1.2231 C.ar      1 <0>        -0.0586
      9 C5          1.3421   -4.4351   -2.3729 C.ar      1 <0>        -0.2458
     10 C6          1.8286   -3.4396   -3.2132 C.ar      1 <0>         0.1775
     11 C7          1.6193   -2.1062   -2.9036 C.ar      1 <0>        -0.1829
     12 C8          2.1179   -1.0022   -3.7980 C.3       1 <0>        -0.0416
     13 C9          3.2380   -1.5120   -4.7045 C.3       1 <0>        -0.1362
     14 C10         2.7632   -2.7896   -5.4091 C.3       1 <0>         0.1042
     15 N2          2.5274   -3.8064   -4.3718 N.am      1 <0>        -0.5473
     16 C11         2.9626   -5.0711   -4.5379 C.2       1 <0>         0.5075
     17 O3          2.8495   -5.8747   -3.6365 O.2       1 <0>        -0.5150
     18 C12         3.5898   -5.4868   -5.8436 C.3       1 <0>        -0.1355
     19 C13         3.8695   -6.9908   -5.8190 C.3       1 <0>        -0.1163
     20 C14         4.5063   -7.4129   -7.1447 C.3       1 <0>         0.1332
     21 N3          4.7741   -8.8530   -7.1211 N.pl3     1 <0>        -0.3699
     22 C15         4.3479   -9.7547   -8.0302 C.2       1 <0>         0.0510
     23 C16         4.8051  -10.9705   -7.6508 C.2       1 <0>        -0.2779
     24 C17         5.5358  -10.8061   -6.4695 C.2       1 <0>         0.0405
     25 N4          5.5230   -9.5363   -6.1543 N.2       1 <0>        -0.2896
     26 H1          0.8967    2.1649   -0.0063 H         1 <0>         0.1140
     27 H2         -0.6387    2.1449   -0.9064 H         1 <0>         0.1141
     28 H3         -0.6502    2.1300    0.8734 H         1 <0>         0.0994
     29 H4         -0.0869   -2.5078   -0.0051 H         1 <0>         0.0997
     30 H5          0.2774   -4.8743   -0.5729 H         1 <0>         0.1021
     31 H6          1.5027   -5.4741   -2.6197 H         1 <0>         0.1456
     32 H7          1.2949   -0.6382   -4.4131 H         1 <0>         0.0567
     33 H8          2.4960   -0.1849   -3.1839 H         1 <0>         0.0816
     34 H9          3.4795   -0.7530   -5.4486 H         1 <0>         0.0726
     35 H10         4.1212   -1.7324   -4.1050 H         1 <0>         0.0655
     36 H11         1.8418   -2.5890   -5.9558 H         1 <0>         0.0734
     37 H12         3.5328   -3.1396   -6.0970 H         1 <0>         0.0804
     38 H13         2.9089   -5.2572   -6.6632 H         1 <0>         0.0942
     39 H14         4.5252   -4.9456   -5.9859 H         1 <0>         0.0974
     40 H15         4.5505   -7.2204   -4.9995 H         1 <0>         0.0888
     41 H16         2.9341   -7.5321   -5.6767 H         1 <0>         0.0759
     42 H17         3.8254   -7.1833   -7.9642 H         1 <0>         0.0963
     43 H18         5.4417   -6.8716   -7.2870 H         1 <0>         0.0858
     44 H19         3.7489   -9.5438   -8.9037 H         1 <0>         0.1722
     45 H20         4.6353  -11.9030   -8.1684 H         1 <0>         0.1453
     46 H21         6.0295  -11.5911   -5.9159 H         1 <0>         0.1814
@<TRIPOS>BOND
     1    1    2 1
     2    1   26 1
     3    1   27 1
     4    1   28 1
     5    2    3 2
     6    2    4 2
     7    2    5 1
     8    5    6 1
     9    6   11 ar
    10    6    7 ar
    11    7    8 ar
    12    7   29 1
    13    8    9 ar
    14    8   30 1
    15    9   10 ar
    16    9   31 1
    17   10   15 1
    18   10   11 ar
    19   11   12 1
    20   12   13 1
    21   12   32 1
    22   12   33 1
    23   13   14 1
    24   13   34 1
    25   13   35 1
    26   14   15 1
    27   14   36 1
    28   14   37 1
    29   15   16 am
    30   16   17 2
    31   16   18 1
    32   18   19 1
    33   18   38 1
    34   18   39 1
    35   19   20 1
    36   19   40 1
    37   19   41 1
    38   20   21 1
    39   20   42 1
    40   20   43 1
    41   21   25 1
    42   21   22 1
    43   22   23 2
    44   22   44 1
    45   23   24 1
    46   23   45 1
    47   24   25 2
    48   24   46 1
@<TRIPOS>MOLECULE
ZINC16857666
   36    38     0     0     0
SMALL
USER_CHARGES
(4S)-4-methyl-4,6-diphenyl-3H-pyrimidin-2-ol
@<TRIPOS>ATOM
      1 C1         -0.0833    5.8554    1.4752 C.3       1 <0>        -0.1457
      2 C2         -0.0705    5.3471    0.0321 C.3       1 <0>         0.2782
      3 C3         -1.2960    5.8461   -0.6977 C.2       1 <0>        -0.2668
      4 C4         -1.2088    6.1357   -2.0053 C.2       1 <0>         0.1799
      5 N1         -0.0311    5.9892   -2.6808 N.2       1 <0>        -0.6141
      6 C5          1.1064    5.8620   -2.0426 C.2       1 <0>         0.5952
      7 N2          1.1156    5.8652   -0.6675 N.pl3     1 <0>        -0.7244
      8 O1          2.2606    5.7292   -2.7300 O.3       1 <0>        -0.4645
      9 C6         -2.4101    6.6219   -2.7278 C.ar      1 <0>        -0.0411
     10 C7         -3.6199    6.7706   -2.0523 C.ar      1 <0>        -0.1067
     11 C8         -4.7328    7.2282   -2.7282 C.ar      1 <0>        -0.1232
     12 C9         -4.6519    7.5281   -4.0761 C.ar      1 <0>        -0.1152
     13 C10        -3.4549    7.3773   -4.7528 C.ar      1 <0>        -0.1263
     14 C11        -2.3342    6.9259   -4.0857 C.ar      1 <0>        -0.0843
     15 C12        -0.0501    3.8402    0.0228 C.ar      1 <0>        -0.1035
     16 C13         1.1563    3.1654    0.0081 C.ar      1 <0>        -0.1050
     17 C14         1.1750    1.7832    0.0004 C.ar      1 <0>        -0.1211
     18 C15        -0.0126    1.0758    0.0080 C.ar      1 <0>        -0.1176
     19 C16        -1.2190    1.7506    0.0173 C.ar      1 <0>        -0.1203
     20 C17        -1.2377    3.1328    0.0294 C.ar      1 <0>        -0.0973
     21 H1          0.8094    5.5035    1.9923 H         1 <0>         0.0672
     22 H2         -0.0981    6.9453    1.4763 H         1 <0>         0.0709
     23 H3         -0.9704    5.4794    1.9849 H         1 <0>         0.0820
     24 H4         -2.2319    5.9682   -0.1728 H         1 <0>         0.1326
     25 H5          1.8810    6.1987   -0.1737 H         1 <0>         0.4085
     26 H6          2.1497    5.7388   -3.6906 H         1 <0>         0.4279
     27 H7         -3.6854    6.5322   -1.0010 H         1 <0>         0.1244
     28 H8         -5.6698    7.3481   -2.2047 H         1 <0>         0.1241
     29 H9         -5.5264    7.8816   -4.6021 H         1 <0>         0.1220
     30 H10        -3.3973    7.6128   -5.8052 H         1 <0>         0.1232
     31 H11        -1.4002    6.8082   -4.6150 H         1 <0>         0.1319
     32 H12         2.0842    3.7181    0.0029 H         1 <0>         0.1186
     33 H13         2.1175    1.2560   -0.0111 H         1 <0>         0.1215
     34 H14         0.0021   -0.0041    0.0020 H         1 <0>         0.1218
     35 H15        -2.1469    1.1980    0.0188 H         1 <0>         0.1232
     36 H16        -2.1802    3.6600    0.0413 H         1 <0>         0.1241
@<TRIPOS>BOND
     1    1    2 1
     2    1   21 1
     3    1   22 1
     4    1   23 1
     5    2    7 1
     6    2    3 1
     7    2   15 1
     8    3    4 2
     9    3   24 1
    10    4    5 1
    11    4    9 1
    12    5    6 2
    13    6    7 1
    14    6    8 1
    15    7   25 1
    16    8   26 1
    17    9   14 ar
    18    9   10 ar
    19   10   11 ar
    20   10   27 1
    21   11   12 ar
    22   11   28 1
    23   12   13 ar
    24   12   29 1
    25   13   14 ar
    26   13   30 1
    27   14   31 1
    28   15   20 ar
    29   15   16 ar
    30   16   17 ar
    31   16   32 1
    32   17   18 ar
    33   17   33 1
    34   18   19 ar
    35   18   34 1
    36   19   20 ar
    37   19   35 1
    38   20   36 1
@<TRIPOS>MOLECULE
ZINC38051489
   38    40     0     0     0
SMALL
USER_CHARGES

@<TRIPOS>ATOM
      1 C1         -0.0168    1.3840    0.0097 C.ar      1 <0>        -0.2284
      2 C2          1.1724    2.0873    0.0021 C.ar      1 <0>        -0.0087
      3 C3          2.3861    1.4128   -0.0098 C.ar      1 <0>        -0.1977
      4 C4          2.4129    0.0212   -0.0101 C.ar      1 <0>         0.2592
      5 C5          1.2112   -0.6820   -0.0086 C.ar      1 <0>        -0.2613
      6 C6          0.0021   -0.0041    0.0020 C.ar      1 <0>         0.2544
      7 N1         -1.2009   -0.7198    0.0055 N.pl3     1 <0>        -0.8770
      8 N2          3.6008   -0.7109    0.0014 N.pl3     1 <0>        -0.6237
      9 C7          4.8877   -0.1463   -0.3934 C.3       1 <0>         0.1357
     10 C8          5.1449    1.1226    0.4337 C.3       1 <0>        -0.1239
     11 S1          3.8835    2.3469   -0.0293 S.3       1 <0>        -0.1341
     12 C9          3.5543   -2.1110    0.4300 C.3       1 <0>         0.1313
     13 C10         3.2992   -3.0076   -0.7832 C.3       1 <0>         0.0691
     14 H1          2.3939   -2.6792   -1.2940 H         1 <0>         0.0634
     15 C11         3.1270   -4.4565   -0.3201 C.3       1 <0>        -0.1508
     16 C12         2.9320   -5.3560   -1.5445 C.3       1 <0>        -0.1217
     17 C13         4.1284   -5.1849   -2.4857 C.3       1 <0>        -0.1571
     18 C14         4.2619   -3.7077   -2.8652 C.3       1 <0>         0.0621
     19 O1          4.4090   -2.9238   -1.6795 O.3       1 <0>        -0.3731
     20 H2         -0.9584    1.9127    0.0260 H         1 <0>         0.1227
     21 H3          1.1579    3.1672    0.0051 H         1 <0>         0.1266
     22 H4          1.2212   -1.7619   -0.0158 H         1 <0>         0.1215
     23 H5         -2.0472   -0.2459    0.0133 H         1 <0>         0.3995
     24 H6         -1.1882   -1.6897    0.0002 H         1 <0>         0.3965
     25 H7          5.6786   -0.8722   -0.2046 H         1 <0>         0.0955
     26 H8          4.8662    0.1065   -1.4534 H         1 <0>         0.0748
     27 H9          5.0654    0.8936    1.4965 H         1 <0>         0.0899
     28 H10         6.1380    1.5133    0.2122 H         1 <0>         0.1171
     29 H11         4.5051   -2.3823    0.8887 H         1 <0>         0.0836
     30 H12         2.7507   -2.2426    1.1545 H         1 <0>         0.0900
     31 H13         4.0157   -4.7724    0.2262 H         1 <0>         0.0735
     32 H14         2.2542   -4.5303    0.3287 H         1 <0>         0.0732
     33 H15         2.8647   -6.3962   -1.2258 H         1 <0>         0.0688
     34 H16         2.0164   -5.0723   -2.0634 H         1 <0>         0.0627
     35 H17         5.0374   -5.5154   -1.9832 H         1 <0>         0.0716
     36 H18         3.9717   -5.7795   -3.3857 H         1 <0>         0.0731
     37 H19         5.1372   -3.5734   -3.5008 H         1 <0>         0.0936
     38 H20         3.3693   -3.3886   -3.4034 H         1 <0>         0.0479
@<TRIPOS>BOND
     1    1    6 ar
     2    1    2 ar
     3    1   20 1
     4    2    3 ar
     5    2   21 1
     6    3   11 1
     7    3    4 ar
     8    4    5 ar
     9    4    8 1
    10    5    6 ar
    11    5   22 1
    12    6    7 1
    13    7   23 1
    14    7   24 1
    15    8    9 1
    16    8   12 1
    17    9   10 1
    18    9   25 1
    19    9   26 1
    20   10   11 1
    21   10   27 1
    22   10   28 1
    23   12   13 1
    24   12   29 1
    25   12   30 1
    26   13   14 1
    27   13   19 1
    28   13   15 1
    29   15   16 1
    30   15   31 1
    31   15   32 1
    32   16   17 1
    33   16   33 1
    34   16   34 1
    35   17   18 1
    36   17   35 1
    37   17   36 1
    38   18   19 1
    39   18   37 1
    40   18   38 1
@<TRIPOS>MOLECULE
ZINC44748694
   43    44     0     0     0
SMALL
USER_CHARGES

@<TRIPOS>ATOM
      1 C1         -2.0971    0.4248    0.5665 C.3       1 <0>        -0.1170
      2 C2         -0.9599   -0.5170    0.2652 C.ar      1 <0>         0.0156
      3 C3         -0.9745   -1.2679   -0.8881 C.ar      1 <0>        -0.2077
      4 C4          0.0753   -2.1384   -1.1669 C.ar      1 <0>         0.2420
      5 C5          1.1431   -2.2525   -0.2805 C.ar      1 <0>        -0.2113
      6 C6          1.1635   -1.5045    0.8741 C.ar      1 <0>        -0.0335
      7 C7          0.1136   -0.6246    1.1539 C.ar      1 <0>        -0.1948
      8 C8          0.1352    0.1833    2.3881 C.2       1 <0>         0.5706
      9 O1         -0.0160    1.3883    2.3286 O.2       1 <0>        -0.5350
     10 N1          0.3227   -0.4143    3.5815 N.am      1 <0>        -0.6064
     11 C9          0.5928   -1.8527    3.6460 C.3       1 <0>         0.0752
     12 C10         0.2563    0.3746    4.8142 C.3       1 <0>         0.1445
     13 H1          0.0480    1.4159    4.5683 H         1 <0>         0.1017
     14 C11        -0.8580   -0.1709    5.7094 C.3       1 <0>        -0.1277
     15 C12        -0.9273    0.6530    6.9968 C.3       1 <0>        -0.1171
     16 C13         0.4102    0.5608    7.7339 C.3       1 <0>        -0.1216
     17 C14         1.5246    1.1063    6.8386 C.3       1 <0>        -0.1131
     18 C15         1.5939    0.2824    5.5513 C.3       1 <0>        -0.0978
     19 H2          1.8022   -0.7589    5.7971 H         1 <0>         0.0716
     20 C16         2.7082    0.8279    4.6560 C.3       1 <0>        -0.1437
     21 N2          0.0574   -2.8961   -2.3327 N.pl3     1 <0>        -0.8701
     22 H3         -1.8414    1.4260    0.2195 H         1 <0>         0.0818
     23 H4         -2.9974    0.0824    0.0562 H         1 <0>         0.0662
     24 H5         -2.2751    0.4473    1.6416 H         1 <0>         0.0662
     25 H6         -1.8015   -1.1819   -1.5774 H         1 <0>         0.1258
     26 H7          1.9559   -2.9291   -0.4994 H         1 <0>         0.1250
     27 H8          1.9918   -1.5937    1.5614 H         1 <0>         0.1258
     28 H9          1.6583   -2.0293    3.4993 H         1 <0>         0.0554
     29 H10         0.2920   -2.2355    4.6213 H         1 <0>         0.0729
     30 H11         0.0290   -2.3637    2.8655 H         1 <0>         0.0742
     31 H12        -1.8109   -0.1052    5.1843 H         1 <0>         0.0654
     32 H13        -0.6497   -1.2122    5.9552 H         1 <0>         0.0657
     33 H14        -1.1357    1.6942    6.7510 H         1 <0>         0.0647
     34 H15        -1.7212    0.2643    7.6346 H         1 <0>         0.0658
     35 H16         0.3609    1.1477    8.6510 H         1 <0>         0.0643
     36 H17         0.6186   -0.4805    7.9797 H         1 <0>         0.0620
     37 H18         1.3162    2.1476    6.5928 H         1 <0>         0.0650
     38 H19         2.4775    1.0406    7.3638 H         1 <0>         0.0660
     39 H20         2.4999    1.8692    4.4102 H         1 <0>         0.0561
     40 H21         3.6611    0.7622    5.1812 H         1 <0>         0.0542
     41 H22         2.7576    0.2409    3.7389 H         1 <0>         0.0517
     42 H23        -0.6861   -2.8176   -2.9507 H         1 <0>         0.4008
     43 H24         0.7884   -3.5030   -2.5279 H         1 <0>         0.4008
@<TRIPOS>BOND
     1    1    2 1
     2    1   22 1
     3    1   23 1
     4    1   24 1
     5    2    7 ar
     6    2    3 ar
     7    3    4 ar
     8    3   25 1
     9    4    5 ar
    10    4   21 1
    11    5    6 ar
    12    5   26 1
    13    6    7 ar
    14    6   27 1
    15    7    8 1
    16    8    9 2
    17    8   10 am
    18   10   11 1
    19   10   12 1
    20   11   28 1
    21   11   29 1
    22   11   30 1
    23   12   13 1
    24   12   18 1
    25   12   14 1
    26   14   15 1
    27   14   31 1
    28   14   32 1
    29   15   16 1
    30   15   33 1
    31   15   34 1
    32   16   17 1
    33   16   35 1
    34   16   36 1
    35   17   18 1
    36   17   37 1
    37   17   38 1
    38   18   19 1
    39   18   20 1
    40   20   39 1
    41   20   40 1
    42   20   41 1
    43   21   42 1
    44   21   43 1
@<TRIPOS>MOLECULE
ZINC52855849
   24    25     0     0     0
SMALL
USER_CHARGES

@<TRIPOS>ATOM
      1 C1         -0.0184    1.5028    0.0103 C.3       1 <0>        -0.0728
      2 C2          0.0021   -0.0041    0.0020 C.2       1 <0>         0.0681
      3 C3          0.0080   -0.8177   -1.1359 C.2       1 <0>        -0.2560
      4 C4          0.0273   -2.1075   -0.7258 C.2       1 <0>         0.0480
      5 N1          0.0335   -2.1094    0.6260 N.pl3     1 <0>        -0.3200
      6 N2          0.0231   -0.7769    1.0584 N.2       1 <0>        -0.2636
      7 C5          0.0526   -3.2450    1.4502 C.ar      1 <0>         0.1259
      8 C6          0.0731   -4.5128    0.8847 C.ar      1 <0>        -0.0859
      9 C7          0.0919   -5.6301    1.6949 C.ar      1 <0>        -0.1579
     10 C8          0.0904   -5.4864    3.0768 C.ar      1 <0>         0.2153
     11 C9          0.0704   -4.2184    3.6430 C.ar      1 <0>        -0.1516
     12 C10         0.0569   -3.1004    2.8318 C.ar      1 <0>        -0.0509
     13 Br1         0.0370   -1.3734    3.6019 Br        1 <0>        -0.0024
     14 N3          0.1085   -6.6181    3.8973 N.pl3     1 <0>        -0.8711
     15 H1          1.0042    1.8801    0.0026 H         1 <0>         0.0778
     16 H2         -0.5455    1.8639   -0.8728 H         1 <0>         0.0781
     17 H3         -0.5286    1.8543    0.9071 H         1 <0>         0.0727
     18 H4         -0.0013   -0.4769   -2.1606 H         1 <0>         0.1515
     19 H5          0.0357   -2.9787   -1.3640 H         1 <0>         0.1746
     20 H6          0.0739   -4.6249   -0.1895 H         1 <0>         0.1383
     21 H7          0.1074   -6.6162    1.2546 H         1 <0>         0.1375
     22 H8          0.0689   -4.1064    4.7171 H         1 <0>         0.1391
     23 H9          0.1222   -7.5037    3.5018 H         1 <0>         0.4028
     24 H10         0.1075   -6.5177    4.8621 H         1 <0>         0.4024
@<TRIPOS>BOND
     1    1    2 1
     2    1   15 1
     3    1   16 1
     4    1   17 1
     5    2    6 2
     6    2    3 1
     7    3    4 2
     8    3   18 1
     9    4    5 1
    10    4   19 1
    11    5    6 1
    12    5    7 1
    13    7   12 ar
    14    7    8 ar
    15    8    9 ar
    16    8   20 1
    17    9   10 ar
    18    9   21 1
    19   10   11 ar
    20   10   14 1
    21   11   12 ar
    22   11   22 1
    23   12   13 1
    24   14   23 1
    25   14   24 1
@<TRIPOS>MOLECULE
ZINC43425208
   49    51     0     0     0
SMALL
USER_CHARGES

@<TRIPOS>ATOM
      1 C1         -0.1041    1.5449   -0.1301 C.3       1 <0>        -0.1281
      2 C2          1.3033    2.1252    0.0225 C.3       1 <0>        -0.1197
      3 C3          2.2738    1.3504   -0.8715 C.3       1 <0>        -0.1354
      4 C4          2.0800    1.7802   -2.3271 C.3       1 <0>        -0.1592
      5 C5          0.8056    1.1409   -2.8820 C.3       1 <0>         0.0847
      6 H1         -0.0649    1.6679   -2.4912 H         1 <0>         0.0854
      7 C6          0.7448   -0.3279   -2.4585 C.3       1 <0>         0.0953
      8 H2          1.6795   -0.6043   -1.9706 H         1 <0>         0.0879
      9 C7         -0.4180   -0.5306   -1.4850 C.3       1 <0>        -0.1538
     10 C8         -0.0316    0.0169   -0.1095 C.3       1 <0>        -0.1258
     11 N1          0.5434   -1.1714   -3.6442 N.3       1 <0>        -0.8181
     12 N2          0.8128    1.2276   -4.3484 N.3       1 <0>        -0.5064
     13 C9          0.2282    2.4981   -4.8043 C.3       1 <0>         0.0133
     14 C10         0.2096    2.5313   -6.3343 C.3       1 <0>         0.0673
     15 O1          1.5361    2.3309   -6.8325 O.3       1 <0>        -0.3855
     16 C11         2.1226    1.0991   -6.4084 C.3       1 <0>         0.0992
     17 H3          1.5184    0.2664   -6.7684 H         1 <0>         0.0663
     18 C12         2.1733    1.0684   -4.8783 C.3       1 <0>         0.0668
     19 H4          2.8005    1.8844   -4.5194 H         1 <0>         0.0430
     20 C13         2.7640   -0.2652   -4.4199 C.3       1 <0>        -0.1119
     21 C14         4.1838   -0.4050   -4.9750 C.3       1 <0>        -0.1292
     22 C15         4.1463   -0.3565   -6.5033 C.3       1 <0>        -0.1140
     23 C16         3.5427    0.9738   -6.9609 C.3       1 <0>        -0.1111
     24 H5         -0.7304    1.8899    0.6926 H         1 <0>         0.0589
     25 H6         -0.5327    1.8755   -1.0761 H         1 <0>         0.0683
     26 H7          1.2973    3.1747   -0.2716 H         1 <0>         0.0598
     27 H8          1.6204    2.0408    1.0619 H         1 <0>         0.0604
     28 H9          3.2981    1.5609   -0.5637 H         1 <0>         0.0592
     29 H10         2.0789    0.2820   -0.7790 H         1 <0>         0.0847
     30 H11         1.9935    2.8656   -2.3771 H         1 <0>         0.0578
     31 H12         2.9363    1.4563   -2.9187 H         1 <0>         0.0831
     32 H13        -1.2968   -0.0012   -1.8532 H         1 <0>         0.0630
     33 H14        -0.6421   -1.5942   -1.4029 H         1 <0>         0.0603
     34 H15         0.9840   -0.2954    0.1337 H         1 <0>         0.0733
     35 H16        -0.7203   -0.3694    0.6419 H         1 <0>         0.0584
     36 H17         0.5935   -2.1502   -3.4045 H         1 <0>         0.3292
     37 H18        -0.7905    2.5856   -4.4265 H         1 <0>         0.0805
     38 H19         0.8270    3.3286   -4.4301 H         1 <0>         0.0379
     39 H20        -0.4417    1.7406   -6.7069 H         1 <0>         0.0578
     40 H21        -0.1632    3.4982   -6.6722 H         1 <0>         0.0940
     41 H22         2.7943   -0.2948   -3.3307 H         1 <0>         0.0664
     42 H23         2.1462   -1.0834   -4.7900 H         1 <0>         0.1125
     43 H24         4.8014    0.4116   -4.6011 H         1 <0>         0.0518
     44 H25         4.6072   -1.3562   -4.6525 H         1 <0>         0.0623
     45 H26         5.1597   -0.4484   -6.8940 H         1 <0>         0.0643
     46 H27         3.5379   -1.1798   -6.8775 H         1 <0>         0.0652
     47 H28         3.5136    1.0037   -8.0501 H         1 <0>         0.0698
     48 H29         4.1518    1.7980   -6.5896 H         1 <0>         0.0658
     49 H30        -0.3315   -0.9546   -4.0978 H         1 <0>         0.3443
@<TRIPOS>BOND
     1    1   10 1
     2    1    2 1
     3    1   24 1
     4    1   25 1
     5    2    3 1
     6    2   26 1
     7    2   27 1
     8    3    4 1
     9    3   28 1
    10    3   29 1
    11    4    5 1
    12    4   30 1
    13    4   31 1
    14    5    6 1
    15    5    7 1
    16    5   12 1
    17    7    8 1
    18    7    9 1
    19    7   11 1
    20    9   10 1
    21    9   32 1
    22    9   33 1
    23   10   34 1
    24   10   35 1
    25   11   36 1
    26   11   49 1
    27   12   18 1
    28   12   13 1
    29   13   14 1
    30   13   37 1
    31   13   38 1
    32   14   15 1
    33   14   39 1
    34   14   40 1
    35   15   16 1
    36   16   17 1
    37   16   23 1
    38   16   18 1
    39   18   19 1
    40   18   20 1
    41   20   21 1
    42   20   41 1
    43   20   42 1
    44   21   22 1
    45   21   43 1
    46   21   44 1
    47   22   23 1
    48   22   45 1
    49   22   46 1
    50   23   47 1
    51   23   48 1
@<TRIPOS>MOLECULE
ZINC20134752
   27    29     0     0     0
SMALL
USER_CHARGES
5-(3-methyl-[1,2,4]triazolo[4,3-d][1,3,4]thiadiazol-6-yl)benzene-1,3-diamine
@<TRIPOS>ATOM
      1 C1         -9.4514    1.7460    0.0575 C.3       1 <0>        -0.0729
      2 C2         -8.6045    0.4995    0.0454 C.2       1 <0>         0.2431
      3 N1         -9.0464   -0.7267    0.0394 N.2       1 <0>        -0.2594
      4 N2         -8.0581   -1.5522    0.0299 N.2       1 <0>        -0.2224
      5 C3         -6.9421   -0.8881    0.0290 C.2       1 <0>         0.1003
      6 N3         -7.2251    0.4562    0.0385 N.pl3     1 <0>        -0.3519
      7 N4         -6.1373    1.3191    0.0386 N.2       1 <0>        -0.2619
      8 C4         -4.9110    0.8630    0.0300 C.2       1 <0>         0.1969
      9 S1         -5.1669   -0.9045    0.0126 S.3       1 <0>         0.1451
     10 C5         -3.6379    1.6184    0.0286 C.ar      1 <0>         0.0624
     11 C6         -3.6529    3.0123    0.0367 C.ar      1 <0>        -0.2046
     12 C7         -2.4582    3.7175    0.0348 C.ar      1 <0>         0.2728
     13 C8         -1.2482    3.0362    0.0303 C.ar      1 <0>        -0.2592
     14 C9         -1.2302    1.6478    0.0168 C.ar      1 <0>         0.2770
     15 C10        -2.4217    0.9372    0.0186 C.ar      1 <0>        -0.2240
     16 N5         -0.0111    0.9658    0.0074 N.pl3     1 <0>        -0.8938
     17 N6         -2.4724    5.1143    0.0425 N.pl3     1 <0>        -0.8936
     18 H1        -10.5153    1.4664    0.0608 H         1 <0>         0.1059
     19 H2         -9.2328    2.3465   -0.8379 H         1 <0>         0.0906
     20 H3         -9.2242    2.3349    0.9584 H         1 <0>         0.0906
     21 H4         -4.5936    3.5427    0.0447 H         1 <0>         0.1292
     22 H5         -0.3194    3.5872    0.0334 H         1 <0>         0.1238
     23 H6         -2.4071   -0.1427    0.0127 H         1 <0>         0.1241
     24 H7          0.0038   -0.1340   -0.0033 H         1 <0>         0.4209
     25 H8          0.9340    1.5286    0.0107 H         1 <0>         0.4204
     26 H9         -1.5254    5.6740    0.0410 H         1 <0>         0.4199
     27 H10        -3.4306    5.6546    0.0501 H         1 <0>         0.4208
@<TRIPOS>BOND
     1    1    2 1
     2    1   18 1
     3    1   19 1
     4    1   20 1
     5    2    6 1
     6    2    3 2
     7    3    4 1
     8    4    5 2
     9    5    9 1
    10    5    6 1
    11    6    7 1
    12    7    8 2
    13    8    9 1
    14    8   10 1
    15   10   15 ar
    16   10   11 ar
    17   11   12 ar
    18   11   21 1
    19   12   13 ar
    20   12   17 1
    21   13   14 ar
    22   13   22 1
    23   14   15 ar
    24   14   16 1
    25   15   23 1
    26   16   24 1
    27   16   25 1
    28   17   26 1
    29   17   27 1
@<TRIPOS>MOLECULE
ZINC03958061
   26    28     0     0     0
SMALL
USER_CHARGES

@<TRIPOS>ATOM
      1 C1          0.0666    1.2642    0.5962 C.2       1 <0>        -0.0177
      2 C2          1.2373    1.9630    0.5896 C.2       1 <0>        -0.2284
      3 C3          2.3782    1.4150   -0.0109 C.2       1 <0>         0.3059
      4 O1          3.5243    2.0999   -0.0164 O.2       1 <0>        -0.5822
      5 C4          2.3160    0.1425   -0.6079 C.2       1 <0>         0.0228
      6 C5          1.1439   -0.5563   -0.6009 C.2       1 <0>        -0.0772
      7 C6          0.0021   -0.0041    0.0020 C.2       1 <0>        -0.1596
      8 C7         -1.2579   -0.7543    0.0105 C.2       1 <0>         0.2702
      9 C8         -1.3914   -2.1426   -0.0884 C.2       1 <0>        -0.3651
     10 C9         -2.7640   -2.4453   -0.0399 C.2       1 <0>         0.4800
     11 N1         -3.1535   -3.7561   -0.1200 N.am      1 <0>        -0.6044
     12 H1         -4.0975   -3.9765   -0.0876 H         1 <0>         0.4467
     13 C10        -2.2484   -4.7410   -0.2432 C.2       1 <0>         0.7244
     14 O2         -2.6421   -5.8890   -0.3110 O.2       1 <0>        -0.4987
     15 N2         -0.9267   -4.5097   -0.2950 N.am      1 <0>        -0.6497
     16 H2         -0.3138   -5.2561   -0.3852 H         1 <0>         0.4492
     17 C11        -0.4387   -3.2521   -0.2228 C.2       1 <0>         0.5911
     18 O3          0.7590   -3.0439   -0.2698 O.2       1 <0>        -0.4489
     19 N3         -3.4296   -1.2896    0.0830 N.pl3     1 <0>        -0.4993
     20 O4         -2.4883   -0.2323    0.1204 O.3       1 <0>         0.0099
     21 O5          3.4234   -0.3907   -1.1919 O.3       1 <0>        -0.4746
     22 H3         -0.8109    1.6862    1.0635 H         1 <0>         0.1265
     23 H4          1.2851    2.9400    1.0475 H         1 <0>         0.1353
     24 H5          1.0943   -1.5331   -1.0590 H         1 <0>         0.1610
     25 H6         -4.3931   -1.1934    0.1403 H         1 <0>         0.4807
     26 H7          4.2042    0.1780   -1.1470 H         1 <0>         0.4022
@<TRIPOS>BOND
     1    1    7 1
     2    1    2 2
     3    1   22 1
     4    2    3 1
     5    2   23 1
     6    3    4 2
     7    3    5 1
     8    5    6 2
     9    5   21 1
    10    6    7 1
    11    6   24 1
    12    7    8 2
    13    8   20 1
    14    8    9 1
    15    9   17 1
    16    9   10 2
    17   10   11 1
    18   10   19 1
    19   11   12 1
    20   11   13 am
    21   13   14 2
    22   13   15 am
    23   15   16 1
    24   15   17 am
    25   17   18 2
    26   19   20 1
    27   19   25 1
    28   21   26 1
@<TRIPOS>MOLECULE
ZINC44018882
   43    46     0     0     0
SMALL
USER_CHARGES

@<TRIPOS>ATOM
      1 C1         -0.8377    1.3195    0.3852 C.3       1 <0>        -0.1284
      2 C2         -0.6288   -0.1680    0.2639 C.2       1 <0>        -0.1324
      3 C3         -0.3036   -0.6388   -0.8968 C.2       1 <0>        -0.1420
      4 C4         -0.0763   -2.0995   -1.1737 C.3       1 <0>         0.1221
      5 H1          0.8085   -2.2123   -1.8003 H         1 <0>         0.0904
      6 C5          0.1420   -2.8430    0.1436 C.3       1 <0>        -0.0535
      7 C6         -0.9924   -2.4826    1.1064 C.3       1 <0>        -0.1020
      8 C7         -0.8062   -1.0020    1.4983 C.3       1 <0>         0.1427
      9 H2          0.0614   -0.8769    2.1461 H         1 <0>         0.0727
     10 O1         -1.9782   -0.5733    2.1945 O.3       1 <0>        -0.5589
     11 C8          0.1353   -4.3611   -0.1146 C.3       1 <0>        -0.0147
     12 C9          1.1039   -4.6054   -1.3024 C.3       1 <0>         0.0674
     13 H3          1.4818   -5.6274   -1.2747 H         1 <0>         0.0804
     14 C10         0.2723   -4.3813   -2.5804 C.3       1 <0>         0.0413
     15 H4          0.6852   -3.5527   -3.1557 H         1 <0>         0.0832
     16 C11        -1.1628   -4.0384   -2.1070 C.3       1 <0>         0.1227
     17 H5         -1.9334   -4.3938   -2.7910 H         1 <0>         0.1397
     18 C12        -1.2420   -4.6945   -0.7168 C.3       1 <0>        -0.0181
     19 C13        -2.5120   -4.7293    0.1058 C.3       1 <0>        -0.0108
     20 O2         -1.9240   -5.9034   -0.4676 O.3       1 <0>        -0.3206
     21 O3         -1.2118   -2.6219   -1.8652 O.3       1 <0>        -0.3460
     22 O4          0.2588   -5.5705   -3.3726 O.3       1 <0>        -0.5494
     23 O5          2.1898   -3.6779   -1.2510 O.3       1 <0>        -0.5379
     24 C14         0.4630   -5.1833    1.1334 C.3       1 <0>        -0.1243
     25 C15         1.4824   -2.4253    0.7518 C.3       1 <0>         0.0649
     26 O6          1.6283   -3.0252    2.0405 O.3       1 <0>        -0.5656
     27 H6          0.1073    1.7995    0.6395 H         1 <0>         0.0706
     28 H7         -1.2018    1.7138   -0.5636 H         1 <0>         0.0706
     29 H8         -1.5696    1.5210    1.1673 H         1 <0>         0.0671
     30 H9         -0.1890    0.0577   -1.7143 H         1 <0>         0.1159
     31 H10        -1.9535   -2.6447    0.6185 H         1 <0>         0.0852
     32 H11        -0.9251   -3.1014    2.0012 H         1 <0>         0.0822
     33 H12        -1.9529    0.3518    2.4748 H         1 <0>         0.3750
     34 H13        -2.4243   -4.5906    1.1833 H         1 <0>         0.1169
     35 H14        -3.4238   -4.3426   -0.3494 H         1 <0>         0.1173
     36 H15         1.1331   -5.8511   -3.6758 H         1 <0>         0.3826
     37 H16         2.8295   -3.7812   -1.9687 H         1 <0>         0.3688
     38 H17        -0.1892   -4.8776    1.9515 H         1 <0>         0.0657
     39 H18         0.3091   -6.2415    0.9221 H         1 <0>         0.0542
     40 H19         1.5025   -5.0165    1.4157 H         1 <0>         0.0829
     41 H20         2.2941   -2.7551    0.1034 H         1 <0>         0.1062
     42 H21         1.5142   -1.3402    0.8504 H         1 <0>         0.0412
     43 H22         2.4575   -2.8034    2.4860 H         1 <0>         0.3749
@<TRIPOS>BOND
     1    1    2 1
     2    1   27 1
     3    1   28 1
     4    1   29 1
     5    2    8 1
     6    2    3 2
     7    3    4 1
     8    3   30 1
     9    4    5 1
    10    4   21 1
    11    4    6 1
    12    6    7 1
    13    6   11 1
    14    6   25 1
    15    7    8 1
    16    7   31 1
    17    7   32 1
    18    8    9 1
    19    8   10 1
    20   10   33 1
    21   11   18 1
    22   11   12 1
    23   11   24 1
    24   12   13 1
    25   12   14 1
    26   12   23 1
    27   14   15 1
    28   14   16 1
    29   14   22 1
    30   16   17 1
    31   16   18 1
    32   16   21 1
    33   18   20 1
    34   18   19 1
    35   19   20 1
    36   19   34 1
    37   19   35 1
    38   22   36 1
    39   23   37 1
    40   24   38 1
    41   24   39 1
    42   24   40 1
    43   25   26 1
    44   25   41 1
    45   25   42 1
    46   26   43 1
@<TRIPOS>MOLECULE
ZINC50323491
   35    37     0     0     0
SMALL
USER_CHARGES

@<TRIPOS>ATOM
      1 C1         -0.0188    1.5335    0.0105 C.3       1 <0>        -0.1405
      2 C2          1.4526    2.0379   -0.0009 C.3       1 <0>        -0.5722
      3 S1          2.2278    0.8424    1.1674 S.o2      1 <0>         2.3747
      4 O1          2.1984    1.3913    2.4777 O.2       1 <0>        -0.9310
      5 O2          3.4629    0.3986    0.6227 O.2       1 <0>        -0.9308
      6 C3          1.0012   -0.5241    1.0635 C.3       1 <0>        -0.5990
      7 C4          0.0021   -0.0041    0.0020 C.3       1 <0>         0.1488
      8 H1          0.3055   -0.3564   -0.9838 H         1 <0>         0.1158
      9 N1         -1.3385   -0.5103    0.3067 N.am      1 <0>        -0.7228
     10 C5         -1.7090   -1.7347   -0.1177 C.2       1 <0>         0.6078
     11 O3         -0.9298   -2.4199   -0.7541 O.2       1 <0>        -0.5314
     12 C6         -3.0490   -2.2408    0.1868 C.2       1 <0>        -0.1501
     13 C7         -3.5793   -3.4771   -0.1719 C.2       1 <0>         0.2037
     14 C8         -4.8831   -3.4829    0.3501 C.2       1 <0>         0.0099
     15 N2         -5.0786   -2.3420    0.9567 N.2       1 <0>        -0.2248
     16 N3         -4.0365   -1.5949    0.8896 N.pl3     1 <0>        -0.3823
     17 H2         -3.9593   -0.7079    1.2744 H         1 <0>         0.4452
     18 C9         -5.8808   -4.6062    0.2313 C.3       1 <0>        -0.0772
     19 C10        -7.3124   -4.3316    0.6959 C.3       1 <0>        -0.1630
     20 C11        -6.3975   -5.2322    1.5282 C.3       1 <0>        -0.1659
     21 N4         -2.9517   -4.4904   -0.8938 N.pl3     1 <0>        -0.8363
     22 H3         -0.5232    1.8899    0.9086 H         1 <0>         0.0954
     23 H4         -0.5402    1.8994   -0.8740 H         1 <0>         0.1097
     24 H5          1.8896    1.9563   -0.9961 H         1 <0>         0.1445
     25 H6          1.5223    3.0584    0.3755 H         1 <0>         0.1474
     26 H7          1.4768   -1.4457    0.7279 H         1 <0>         0.1492
     27 H8          0.5045   -0.6713    2.0225 H         1 <0>         0.1431
     28 H9         -1.9595    0.0356    0.8138 H         1 <0>         0.3991
     29 H10        -5.7474   -5.2645   -0.6271 H         1 <0>         0.1190
     30 H11        -7.5327   -3.3385    1.0875 H         1 <0>         0.1026
     31 H12        -8.1213   -4.8092    0.1430 H         1 <0>         0.0987
     32 H13        -6.6045   -6.3024    1.5229 H         1 <0>         0.0998
     33 H14        -6.0159   -4.8316    2.4673 H         1 <0>         0.0953
     34 H15        -2.0408   -4.3713   -1.2052 H         1 <0>         0.4135
     35 H16        -3.4257   -5.3148   -1.0849 H         1 <0>         0.4041
@<TRIPOS>BOND
     1    1    7 1
     2    1    2 1
     3    1   22 1
     4    1   23 1
     5    2    3 1
     6    2   24 1
     7    2   25 1
     8    3    4 2
     9    3    5 2
    10    3    6 1
    11    6    7 1
    12    6   26 1
    13    6   27 1
    14    7    8 1
    15    7    9 1
    16    9   10 am
    17    9   28 1
    18   10   11 2
    19   10   12 1
    20   12   16 1
    21   12   13 2
    22   13   14 1
    23   13   21 1
    24   14   15 2
    25   14   18 1
    26   15   16 1
    27   16   17 1
    28   18   20 1
    29   18   19 1
    30   18   29 1
    31   19   20 1
    32   19   30 1
    33   19   31 1
    34   20   32 1
    35   20   33 1
    36   21   34 1
    37   21   35 1
@<TRIPOS>MOLECULE
ZINC61709407
   32    34     0     0     0
SMALL
USER_CHARGES

@<TRIPOS>ATOM
      1 C1         -0.0166    1.3758    0.0096 C.ar      1 <0>        -0.1289
      2 C2          1.1880    2.0810    0.0019 C.ar      1 <0>        -0.1434
      3 C3          2.4191    1.3863   -0.0136 C.ar      1 <0>         0.0948
      4 C4          2.4213   -0.0082   -0.0216 C.ar      1 <0>        -0.0639
      5 C5          1.2218   -0.6961   -0.0144 C.ar      1 <0>         0.1599
      6 C6          0.0021   -0.0041    0.0020 C.ar      1 <0>         0.2047
      7 N1         -1.2030   -0.7169    0.0102 N.pl3     1 <0>        -0.8647
      8 N2          1.2249   -2.0900   -0.0224 N.pl3     1 <0>        -0.6799
      9 C7          1.2221   -2.9423   -1.2254 C.3       1 <0>         0.1346
     10 C8          1.8400   -4.2850   -0.7615 C.3       1 <0>        -0.1661
     11 C9          1.2616   -4.4152    0.6723 C.3       1 <0>         0.0910
     12 H1          1.9161   -5.0214    1.2986 H         1 <0>         0.0752
     13 C10         1.2380   -2.9537    1.1673 C.3       1 <0>         0.1371
     14 O1         -0.0559   -4.9674    0.6378 O.3       1 <0>        -0.5603
     15 N3          3.5758    2.0973   -0.0213 N.2       1 <0>        -0.5086
     16 C11         3.5763    3.3952   -0.0148 C.2       1 <0>         0.3515
     17 N4          2.4407    4.1424    0.0005 N.am      1 <0>        -0.6567
     18 H2          2.5026    5.1105    0.0051 H         1 <0>         0.4195
     19 C12         1.2249    3.5486    0.0089 C.2       1 <0>         0.5461
     20 O2          0.2002    4.2065    0.0222 O.2       1 <0>        -0.5156
     21 H3         -0.9571    1.9066    0.0259 H         1 <0>         0.1378
     22 H4          3.3561   -0.5489   -0.0338 H         1 <0>         0.1402
     23 H5         -2.0480   -0.2408    0.0211 H         1 <0>         0.3994
     24 H6         -1.1928   -1.6868    0.0049 H         1 <0>         0.4050
     25 H7          0.2026   -3.0960   -1.5790 H         1 <0>         0.0515
     26 H8          1.8329   -2.4943   -2.0091 H         1 <0>         0.0625
     27 H9          1.5062   -5.1078   -1.3937 H         1 <0>         0.0836
     28 H10         2.9283   -4.2275   -0.7401 H         1 <0>         0.0839
     29 H11         2.1262   -2.7483    1.7648 H         1 <0>         0.0657
     30 H12         0.3407   -2.7801    1.7613 H         1 <0>         0.0607
     31 H13        -0.0995   -5.8577    0.2627 H         1 <0>         0.3817
     32 H14         4.5270    3.9076   -0.0214 H         1 <0>         0.2018
@<TRIPOS>BOND
     1    1    6 ar
     2    1    2 ar
     3    1   21 1
     4    2   19 1
     5    2    3 ar
     6    3    4 ar
     7    3   15 1
     8    4    5 ar
     9    4   22 1
    10    5    6 ar
    11    5    8 1
    12    6    7 1
    13    7   23 1
    14    7   24 1
    15    8   13 1
    16    8    9 1
    17    9   10 1
    18    9   25 1
    19    9   26 1
    20   10   11 1
    21   10   27 1
    22   10   28 1
    23   11   12 1
    24   11   13 1
    25   11   14 1
    26   13   29 1
    27   13   30 1
    28   14   31 1
    29   15   16 2
    30   16   17 1
    31   16   32 1
    32   17   18 1
    33   17   19 am
    34   19   20 2
@<TRIPOS>MOLECULE
ZINC13167049
   37    38     0     0     0
SMALL
USER_CHARGES
1-(3,5-dimethylbenzoyl)piperidine-4-carboxylic acid
@<TRIPOS>ATOM
      1 C1          8.3242    1.6479    1.6695 C.3       1 <0>        -0.1139
      2 C2          7.1928    1.1853    0.7881 C.ar      1 <0>        -0.0909
      3 C3          7.3572    0.0746   -0.0203 C.ar      1 <0>        -0.1021
      4 C4          6.3217   -0.3598   -0.8286 C.ar      1 <0>        -0.0906
      5 C5          5.1174    0.3131   -0.8332 C.ar      1 <0>        -0.0721
      6 C6          4.9447    1.4340   -0.0197 C.ar      1 <0>        -0.1149
      7 C7          5.9934    1.8670    0.7932 C.ar      1 <0>        -0.0964
      8 C8          3.6569    2.1603   -0.0200 C.2       1 <0>         0.5571
      9 O1          2.6127    1.5459   -0.1182 O.2       1 <0>        -0.5449
     10 N1          3.6408    3.5036    0.0887 N.am      1 <0>        -0.5980
     11 C9          2.3691    4.2297    0.2086 C.3       1 <0>         0.1123
     12 C10         2.3099    5.3107   -0.8691 C.3       1 <0>        -0.1104
     13 C11         3.5527    6.1979   -0.7674 C.3       1 <0>        -0.1287
     14 C12         4.8064    5.3512   -0.9985 C.3       1 <0>        -0.1102
     15 C13         4.8942    4.2701    0.0834 C.3       1 <0>         0.0928
     16 C14         3.4811    7.2838   -1.8098 C.2       1 <0>         0.4651
     17 O2          4.3439    7.3715   -2.6511 O.co2     1 <0>        -0.6400
     18 C15         6.5100   -1.5703   -1.7062 C.3       1 <0>        -0.1130
     19 H1          8.9412    2.3620    1.1241 H         1 <0>         0.0733
     20 H2          7.9182    2.1253    2.5614 H         1 <0>         0.0675
     21 H3          8.9317    0.7909    1.9607 H         1 <0>         0.0663
     22 H4          8.2982   -0.4555   -0.0206 H         1 <0>         0.1241
     23 H5          4.3101   -0.0266   -1.4651 H         1 <0>         0.1301
     24 H6          5.8662    2.7337    1.4249 H         1 <0>         0.1335
     25 H7          1.5386    3.5365    0.0749 H         1 <0>         0.0895
     26 H8          2.3051    4.6945    1.1924 H         1 <0>         0.0671
     27 H9          1.4163    5.9187   -0.7276 H         1 <0>         0.0832
     28 H10         2.2784    4.8400   -1.8518 H         1 <0>         0.0589
     29 H11         3.5968    6.6489    0.2240 H         1 <0>         0.0696
     30 H12         5.6897    5.9879   -0.9491 H         1 <0>         0.0754
     31 H13         4.7520    4.8801   -1.9800 H         1 <0>         0.0655
     32 H14         5.0403    4.7384    1.0568 H         1 <0>         0.0679
     33 H15         5.7292    3.6037   -0.1329 H         1 <0>         0.0918
     34 H16         6.2157   -2.4656   -1.1584 H         1 <0>         0.0707
     35 H17         5.8926   -1.4714   -2.5990 H         1 <0>         0.0682
     36 H18         7.5578   -1.6496   -1.9959 H         1 <0>         0.0669
     37 O3          2.4588    8.1536   -1.8038 O.co2     1 <0>        -0.7705
@<TRIPOS>BOND
     1    1    2 1
     2    1   19 1
     3    1   20 1
     4    1   21 1
     5    2    7 ar
     6    2    3 ar
     7    3    4 ar
     8    3   22 1
     9    4    5 ar
    10    4   18 1
    11    5    6 ar
    12    5   23 1
    13    6    7 ar
    14    6    8 1
    15    7   24 1
    16    8    9 2
    17    8   10 am
    18   10   15 1
    19   10   11 1
    20   11   12 1
    21   11   25 1
    22   11   26 1
    23   12   13 1
    24   12   27 1
    25   12   28 1
    26   13   14 1
    27   13   16 1
    28   13   29 1
    29   14   15 1
    30   14   30 1
    31   14   31 1
    32   15   32 1
    33   15   33 1
    34   16   17 2
    35   16   37 1
    36   18   34 1
    37   18   35 1
    38   18   36 1
@<TRIPOS>MOLECULE
ZINC33418921
   27    29     0     0     0
SMALL
USER_CHARGES
2,6-dimethyl-3-(2-thienyl)imidazo[2,1-b]thiazole-5-carboxylic acid
@<TRIPOS>ATOM
      1 C1          0.2899    4.4406   -0.9846 C.3       1 <0>        -0.0583
      2 C2          1.3886    3.4399   -0.7347 C.2       1 <0>         0.0320
      3 C3          1.2373    2.0700   -0.6647 C.2       1 <0>         0.0137
      4 N1          2.5112    1.5301   -0.4130 N.pl3     1 <0>        -0.4079
      5 C4          3.0806    0.2858   -0.2264 C.2       1 <0>         0.1622
      6 C5          4.4069    0.1739    0.0030 C.2       1 <0>        -0.1489
      7 S1          4.9325    1.8800   -0.0455 S.3       1 <0>         0.1141
      8 C6          3.3419    2.6119   -0.3570 C.2       1 <0>         0.1451
      9 N2          2.6718    3.7218   -0.5438 N.2       1 <0>        -0.4344
     10 C7          5.2301   -1.0676    0.2317 C.3       1 <0>        -0.0541
     11 C8          2.2390   -0.9230   -0.2783 C.2       1 <0>        -0.1333
     12 C9          2.3773   -2.0390   -1.0625 C.2       1 <0>        -0.1205
     13 C10         1.4581   -3.0577   -0.9307 C.2       1 <0>        -0.1652
     14 C11         0.4421   -2.9212   -0.0415 C.2       1 <0>        -0.1854
     15 S2          0.7695   -1.3118    0.6581 S.3       1 <0>         0.1526
     16 C12         0.0303    1.3473   -0.8119 C.2       1 <0>         0.5173
     17 O1         -0.7520    1.2731    0.1178 O.co2     1 <0>        -0.6055
     18 O2         -0.2567    0.7444   -1.9851 O.co2     1 <0>        -0.7352
     19 H1         -0.6672    3.9119   -1.1048 H         1 <0>         0.0776
     20 H2          0.5125    5.0086   -1.8999 H         1 <0>         0.0699
     21 H3          0.2224    5.1317   -0.1315 H         1 <0>         0.0705
     22 H4          6.2823   -0.7865    0.3864 H         1 <0>         0.0802
     23 H5          5.1518   -1.7263   -0.6458 H         1 <0>         0.0842
     24 H6          4.8571   -1.5961    1.1214 H         1 <0>         0.0847
     25 H7          3.1919   -2.1198   -1.7671 H         1 <0>         0.1301
     26 H8          1.5427   -3.9515   -1.5311 H         1 <0>         0.1313
     27 H9         -0.3590   -3.6093    0.1845 H         1 <0>         0.1833
@<TRIPOS>BOND
     1    1    2 1
     2    1   19 1
     3    1   20 1
     4    1   21 1
     5    2    9 1
     6    2    3 2
     7    3    4 1
     8    3   16 1
     9    4    8 1
    10    4    5 1
    11    5    6 2
    12    5   11 1
    13    6    7 1
    14    6   10 1
    15    7    8 1
    16    8    9 2
    17   10   22 1
    18   10   23 1
    19   10   24 1
    20   11   15 1
    21   11   12 2
    22   12   13 1
    23   12   25 1
    24   13   14 2
    25   13   26 1
    26   14   15 1
    27   14   27 1
    28   16   17 2
    29   16   18 1
@<TRIPOS>MOLECULE
ZINC39463257
   19    20     0     0     0
SMALL
USER_CHARGES

@<TRIPOS>ATOM
      1 C1         -0.0225    1.8097    0.0120 C.3       1 <0>        -0.1741
      2 S1          0.0021   -0.0041    0.0020 S.3       1 <0>        -0.0250
      3 C2         -1.7016   -0.4536    0.0159 C.2       1 <0>         0.1299
      4 C3         -2.6567    0.5159    0.0246 C.2       1 <0>        -0.1908
      5 C4         -4.0146    0.1687    0.0356 C.2       1 <0>        -0.1104
      6 C5         -4.3788   -1.1450    0.0377 C.2       1 <0>        -0.0068
      7 C6         -3.3829   -2.1413    0.0286 C.2       1 <0>         0.1114
      8 N1         -2.0568   -1.7776    0.0122 N.pl3     1 <0>        -0.4129
      9 C7         -1.3231   -2.9363   -0.0011 C.2       1 <0>         0.3380
     10 C8         -2.2023   -3.9645    0.0018 C.2       1 <0>        -0.1619
     11 N2         -3.4452   -3.4644    0.0285 N.2       1 <0>        -0.4376
     12 O1          0.0340   -3.0334   -0.0150 O.3       1 <0>        -0.6924
     13 Br1        -5.3381    1.5192    0.0484 Br        1 <0>        -0.0695
     14 H1          1.0001    2.1870    0.0043 H         1 <0>         0.1073
     15 H2         -0.5497    2.1708   -0.8711 H         1 <0>         0.0808
     16 H3         -0.5327    2.1613    0.9088 H         1 <0>         0.0808
     17 H4         -2.3674    1.5564    0.0233 H         1 <0>         0.1341
     18 H5         -5.4232   -1.4200    0.0465 H         1 <0>         0.1386
     19 H6         -1.9452   -5.0134   -0.0063 H         1 <0>         0.1604
@<TRIPOS>BOND
     1    1    2 1
     2    1   14 1
     3    1   15 1
     4    1   16 1
     5    2    3 1
     6    3    8 1
     7    3    4 2
     8    4    5 1
     9    4   17 1
    10    5    6 2
    11    5   13 1
    12    6    7 1
    13    6   18 1
    14    7   11 2
    15    7    8 1
    16    8    9 1
    17    9   10 2
    18    9   12 1
    19   10   11 1
    20   10   19 1
@<TRIPOS>MOLECULE
ZINC45823863
   31    33     0     0     0
SMALL
USER_CHARGES

@<TRIPOS>ATOM
      1 C1         -0.0167    1.3788    0.0096 C.ar      1 <0>        -0.1773
      2 C2          1.1810    2.0725    0.0019 C.ar      1 <0>        -0.0216
      3 C3          2.3721    1.3391   -0.0134 C.ar      1 <0>        -0.0513
      4 C4          2.3057   -0.0544   -0.0202 C.ar      1 <0>         0.1063
      5 N1          1.1412   -0.6694   -0.0124 N.ar      1 <0>        -0.4895
      6 C5          0.0021   -0.0041    0.0020 C.ar      1 <0>         0.0859
      7 C6          3.6814    2.0302   -0.0227 C.ar      1 <0>        -0.0869
      8 C7          4.5434    1.9259   -1.1275 C.ar      1 <0>         0.0291
      9 C8          5.7736    2.6044   -1.0878 C.ar      1 <0>        -0.1520
     10 C9          6.0967    3.3480    0.0215 C.ar      1 <0>         0.1580
     11 N2          5.2601    3.4206    1.0513 N.ar      1 <0>        -0.4921
     12 C10         4.0906    2.8106    1.0688 C.ar      1 <0>         0.3341
     13 S1          3.0400    2.9706    2.4743 S.3       1 <0>        -0.8395
     14 C11         7.3901    4.1165    0.1266 C.3       1 <0>        -0.0643
     15 C12         8.4054    3.6024   -0.8914 C.3       1 <0>        -0.1175
     16 C13         7.7389    3.5802   -2.2720 C.3       1 <0>        -0.1167
     17 C14         6.6852    2.4742   -2.2786 C.3       1 <0>        -0.0675
     18 C15         4.1762    1.1442   -2.2697 C.1       1 <0>         0.2695
     19 N3          3.8850    0.5240   -3.1759 N.1       1 <0>        -0.4240
     20 H1         -0.9559    1.9117    0.0259 H         1 <0>         0.1297
     21 H2          1.1955    3.1524    0.0072 H         1 <0>         0.1318
     22 H3          3.2170   -0.6337   -0.0324 H         1 <0>         0.1437
     23 H4         -0.9309   -0.5481    0.0084 H         1 <0>         0.1480
     24 H5          7.1968    5.1727   -0.0608 H         1 <0>         0.0802
     25 H6          7.7973    3.9990    1.1308 H         1 <0>         0.0830
     26 H7          9.2712    4.2643   -0.9126 H         1 <0>         0.0685
     27 H8          8.7198    2.5948   -0.6195 H         1 <0>         0.0661
     28 H9          7.2634    4.5417   -2.4659 H         1 <0>         0.0664
     29 H10         8.4875    3.3788   -3.0382 H         1 <0>         0.0652
     30 H11         7.1818    1.5045   -2.2467 H         1 <0>         0.0702
     31 H12         6.0953    2.5453   -3.1923 H         1 <0>         0.0643
@<TRIPOS>BOND
     1    1    6 ar
     2    1    2 ar
     3    1   20 1
     4    2    3 ar
     5    2   21 1
     6    3    4 ar
     7    3    7 1
     8    4    5 ar
     9    4   22 1
    10    5    6 ar
    11    6   23 1
    12    7   12 ar
    13    7    8 ar
    14    8    9 ar
    15    8   18 1
    16    9   17 1
    17    9   10 ar
    18   10   11 ar
    19   10   14 1
    20   11   12 ar
    21   12   13 1
    22   14   15 1
    23   14   24 1
    24   14   25 1
    25   15   16 1
    26   15   26 1
    27   15   27 1
    28   16   17 1
    29   16   28 1
    30   16   29 1
    31   17   30 1
    32   17   31 1
    33   18   19 3
@<TRIPOS>MOLECULE
ZINC62868667
   37    38     0     0     0
SMALL
USER_CHARGES

@<TRIPOS>ATOM
      1 C1         -0.7422    1.3652    0.1550 C.3       1 <0>        -0.0938
      2 C2         -0.2550   -0.0576    0.0583 C.2       1 <0>        -0.1536
      3 C3         -0.4254   -0.7751   -1.1014 C.2       1 <0>        -0.0716
      4 C4          0.0593   -2.0740   -1.0828 C.2       1 <0>        -0.2384
      5 S1          0.7216   -2.1940    0.5680 S.3       1 <0>         0.2117
      6 C5          0.3625   -0.6459    1.1125 C.2       1 <0>        -0.2221
      7 C6          0.6570   -0.0483    2.4643 C.3       1 <0>        -0.0687
      8 C7          0.0339   -3.0850   -2.1438 C.2       1 <0>         0.5970
      9 O1         -0.0964   -2.7452   -3.3052 O.2       1 <0>        -0.5279
     10 N1          0.1548   -4.3910   -1.8334 N.am      1 <0>        -0.5968
     11 C8          0.1627   -4.8294   -0.4311 C.3       1 <0>         0.1024
     12 C9         -0.9092   -5.9080   -0.2456 C.3       1 <0>        -0.1354
     13 C10        -0.6760   -7.0326   -1.2571 C.3       1 <0>        -0.0886
     14 C11        -0.7922   -6.4754   -2.6777 C.3       1 <0>        -0.1435
     15 C12         0.2750   -5.4038   -2.8909 C.3       1 <0>         0.1399
     16 C13        -2.1779   -5.8565   -2.8718 C.3       1 <0>        -0.1115
     17 C14        -0.5944   -7.5897   -3.6728 C.2       1 <0>         0.5056
     18 O2         -1.1496   -7.5442   -4.7573 O.co2     1 <0>        -0.6900
     19 O3          0.1208   -8.5368   -3.3934 O.co2     1 <0>        -0.6944
     20 H1          0.0486    2.0426   -0.1671 H         1 <0>         0.0652
     21 H2         -1.6147    1.4947   -0.4853 H         1 <0>         0.0641
     22 H3         -1.0128    1.5872    1.1872 H         1 <0>         0.0633
     23 H4         -0.9065   -0.3540   -1.9718 H         1 <0>         0.1459
     24 H5         -0.1803   -0.2384    3.1358 H         1 <0>         0.0774
     25 H6          1.5604   -0.5013    2.8727 H         1 <0>         0.0725
     26 H7          0.8039    1.0269    2.3620 H         1 <0>         0.0771
     27 H8          1.1413   -5.2401   -0.1822 H         1 <0>         0.0746
     28 H9         -0.0558   -3.9815    0.2181 H         1 <0>         0.0779
     29 H10        -0.8494   -6.3102    0.7657 H         1 <0>         0.0707
     30 H11        -1.8953   -5.4724   -0.4068 H         1 <0>         0.0677
     31 H12         0.3199   -7.4512   -1.1115 H         1 <0>         0.0682
     32 H13        -1.4227   -7.8130   -1.1110 H         1 <0>         0.0593
     33 H14         0.1304   -4.9348   -3.8642 H         1 <0>         0.0926
     34 H15         1.2628   -5.8624   -2.8471 H         1 <0>         0.0685
     35 H16        -2.3194   -5.0497   -2.1526 H         1 <0>         0.0346
     36 H17        -2.2601   -5.4598   -3.8837 H         1 <0>         0.0567
     37 H18        -2.9412   -6.6190   -2.7173 H         1 <0>         0.0434
@<TRIPOS>BOND
     1    1    2 1
     2    1   20 1
     3    1   21 1
     4    1   22 1
     5    2    6 2
     6    2    3 1
     7    3    4 2
     8    3   23 1
     9    4    5 1
    10    4    8 1
    11    5    6 1
    12    6    7 1
    13    7   24 1
    14    7   25 1
    15    7   26 1
    16    8    9 2
    17    8   10 am
    18   10   15 1
    19   10   11 1
    20   11   12 1
    21   11   27 1
    22   11   28 1
    23   12   13 1
    24   12   29 1
    25   12   30 1
    26   13   14 1
    27   13   31 1
    28   13   32 1
    29   14   15 1
    30   14   16 1
    31   14   17 1
    32   15   33 1
    33   15   34 1
    34   16   35 1
    35   16   36 1
    36   16   37 1
    37   17   18 2
    38   17   19 1
@<TRIPOS>MOLECULE
ZINC13225122
   38    40     0     0     0
SMALL
USER_CHARGES
(2S,3aS,7aS)-1-(2,3,4,5-tetrafluorobenzoyl)-2,3,3a,4,5,6,7,7a-octahydroindole-2-carboxylic acid
@<TRIPOS>ATOM
      1 C1          1.2021    3.9045    0.3952 C.ar      1 <0>        -0.0792
      2 C2          1.0103    2.5220    0.3231 C.ar      1 <0>        -0.0952
      3 C3         -0.2866    2.0043    0.2481 C.ar      1 <0>         0.1393
      4 C4         -1.3715    2.8636    0.2398 C.ar      1 <0>         0.0439
      5 C5         -1.1735    4.2333    0.3169 C.ar      1 <0>         0.0749
      6 C6          0.1131    4.7512    0.3920 C.ar      1 <0>         0.0953
      7 F1          0.2986    6.0876    0.4617 F         1 <0>        -0.1072
      8 F2         -2.2358    5.0681    0.3137 F         1 <0>        -0.1109
      9 F3         -2.6253    2.3665    0.1612 F         1 <0>        -0.1121
     10 F4         -0.4797    0.6690    0.1782 F         1 <0>        -0.0976
     11 C7          2.1720    1.6119    0.3258 C.2       1 <0>         0.5952
     12 O1          2.0187    0.4311    0.5716 O.2       1 <0>        -0.5313
     13 N1          3.4030    2.0898    0.0557 N.am      1 <0>        -0.5739
     14 C8          4.6212    1.2915   -0.1046 C.3       1 <0>         0.1518
     15 H1          5.0947    1.1840    0.8713 H         1 <0>         0.0648
     16 C9          4.3549   -0.0869   -0.6654 C.3       1 <0>        -0.1325
     17 C10         3.8581   -0.0506   -2.0829 C.3       1 <0>        -0.1140
     18 C11         4.9099    0.6550   -2.9455 C.3       1 <0>        -0.1106
     19 C12         5.0575    2.0940   -2.4569 C.3       1 <0>        -0.1390
     20 C13         5.5484    2.1253   -1.0080 C.3       1 <0>        -0.0946
     21 H2          6.5948    1.8340   -0.9170 H         1 <0>         0.0925
     22 C14         5.2702    3.5574   -0.4566 C.3       1 <0>        -0.1114
     23 C15         3.7597    3.5069   -0.1369 C.3       1 <0>         0.0588
     24 H3          3.5567    4.0679    0.7754 H         1 <0>         0.0846
     25 C16         2.9704    4.0833   -1.2839 C.2       1 <0>         0.4556
     26 O2          2.2831    3.3618   -1.9672 O.co2     1 <0>        -0.6069
     27 H4          2.2016    4.3094    0.4537 H         1 <0>         0.1961
     28 H5          5.2785   -0.6655   -0.6446 H         1 <0>         0.0613
     29 H6          3.6082   -0.5858   -0.0476 H         1 <0>         0.0939
     30 H7          2.9199    0.5029   -2.1221 H         1 <0>         0.0695
     31 H8          3.7020   -1.0647   -2.4508 H         1 <0>         0.0552
     32 H9          4.5893    0.6536   -3.9872 H         1 <0>         0.0554
     33 H10         5.8657    0.1387   -2.8563 H         1 <0>         0.0516
     34 H11         4.0918    2.5954   -2.5198 H         1 <0>         0.1059
     35 H12         5.7749    2.6158   -3.0904 H         1 <0>         0.0533
     36 H13         5.8540    3.7448    0.4446 H         1 <0>         0.0713
     37 H14         5.4802    4.3113   -1.2152 H         1 <0>         0.0915
     38 O3          3.0308    5.3983   -1.5464 O.co2     1 <0>        -0.7454
@<TRIPOS>BOND
     1    1    6 ar
     2    1    2 ar
     3    1   27 1
     4    2    3 ar
     5    2   11 1
     6    3    4 ar
     7    3   10 1
     8    4    5 ar
     9    4    9 1
    10    5    6 ar
    11    5    8 1
    12    6    7 1
    13   11   12 2
    14   11   13 am
    15   13   23 1
    16   13   14 1
    17   14   15 1
    18   14   20 1
    19   14   16 1
    20   16   17 1
    21   16   28 1
    22   16   29 1
    23   17   18 1
    24   17   30 1
    25   17   31 1
    26   18   19 1
    27   18   32 1
    28   18   33 1
    29   19   20 1
    30   19   34 1
    31   19   35 1
    32   20   21 1
    33   20   22 1
    34   22   23 1
    35   22   36 1
    36   22   37 1
    37   23   24 1
    38   23   25 1
    39   25   26 2
    40   25   38 1
@<TRIPOS>MOLECULE
ZINC32853593
   26    28     0     0     0
SMALL
USER_CHARGES
(5Z)-5-[(2,6-dimethylimidazo[2,1-b]thiazol-5-yl)methylene]-2-thioxo-thiazolidin-4-one
@<TRIPOS>ATOM
      1 C1          0.0021   -0.0041    0.0020 C.3       1 <0>        -0.0625
      2 C2         -0.0184    1.5028    0.0103 C.2       1 <0>        -0.1547
      3 C3         -1.0649    2.3292    0.0188 C.2       1 <0>         0.0319
      4 N1         -0.8852    3.6924    0.0304 N.pl3     1 <0>        -0.4178
      5 C4         -1.6778    4.8530    0.0442 C.2       1 <0>        -0.0064
      6 C5         -0.8111    5.9317    0.0417 C.2       1 <0>         0.0968
      7 N2          0.4309    5.4597    0.0273 N.2       1 <0>        -0.4391
      8 C6          0.4030    4.1510    0.0205 C.2       1 <0>         0.1766
      9 S1          1.3527    2.6474    0.0034 S.3       1 <0>         0.1209
     10 C7         -1.2062    7.3860    0.0528 C.3       1 <0>        -0.1027
     11 C8         -3.0848    4.9076    0.0579 C.2       1 <0>         0.0173
     12 C9         -3.7344    5.6956    0.9822 C.2       1 <0>        -0.1709
     13 C10        -5.1284    5.8997    1.1764 C.2       1 <0>         0.5207
     14 O1         -5.9478    5.3378    0.4704 O.3       1 <0>        -0.5042
     15 N3         -5.5109    6.7152    2.1435 N.2       1 <0>        -0.6472
     16 C11        -4.6021    7.3381    2.9268 C.2       1 <0>         0.3753
     17 S2         -4.8666    8.4239    4.2237 S.2       1 <0>        -0.5530
     18 S3         -3.0549    6.7337    2.2690 S.3       1 <0>        -0.1308
     19 H1         -1.0299   -0.3849    0.0098 H         1 <0>         0.0877
     20 H2          0.5341   -0.3685    0.8932 H         1 <0>         0.0848
     21 H3          0.5170   -0.3588   -0.9030 H         1 <0>         0.0841
     22 H4         -2.0656    1.9229    0.0205 H         1 <0>         0.1721
     23 H5         -0.3015    8.0118    0.0476 H         1 <0>         0.0802
     24 H6         -1.7944    7.5992    0.9575 H         1 <0>         0.1131
     25 H7         -1.8110    7.6084   -0.8387 H         1 <0>         0.0773
     26 H8         -3.6651    4.3210   -0.6695 H         1 <0>         0.1506
@<TRIPOS>BOND
     1    1    2 1
     2    1   19 1
     3    1   20 1
     4    1   21 1
     5    2    9 1
     6    2    3 2
     7    3    4 1
     8    3   22 1
     9    4    8 1
    10    4    5 1
    11    5    6 2
    12    5   11 1
    13    6    7 1
    14    6   10 1
    15    7    8 2
    16    8    9 1
    17   10   23 1
    18   10   24 1
    19   10   25 1
    20   11   12 2
    21   11   26 1
    22   12   18 1
    23   12   13 1
    24   13   14 1
    25   13   15 2
    26   15   16 1
    27   16   17 2
    28   16   18 1
@<TRIPOS>MOLECULE
ZINC37414457
   35    37     0     0     0
SMALL
USER_CHARGES

@<TRIPOS>ATOM
      1 C1         -0.0167    1.3828    0.0096 C.2       1 <0>        -0.0939
      2 C2          1.2121    1.9966    0.0012 C.2       1 <0>        -0.1799
      3 C3          2.3323    1.2293   -0.0136 C.2       1 <0>        -0.2246
      4 S1          1.7514   -0.3470   -0.0165 S.3       1 <0>         0.3821
      5 C4          0.0021   -0.0041    0.0020 C.2       1 <0>        -0.2340
      6 C5         -1.1225   -0.9425    0.0081 C.2       1 <0>         0.6367
      7 O1         -2.2650   -0.5231    0.0217 O.2       1 <0>        -0.5489
      8 N1         -0.8921   -2.2704   -0.0013 N.am      1 <0>        -0.5748
      9 C6         -1.9125   -3.3219   -0.0027 C.3       1 <0>         0.1525
     10 H1         -2.1632   -3.5588   -1.0367 H         1 <0>         0.0586
     11 C7         -3.1779   -2.9184    0.7195 C.3       1 <0>        -0.1312
     12 C8         -2.9267   -2.7340    2.2161 C.3       1 <0>        -0.1118
     13 C9         -2.4043   -4.0572    2.7860 C.3       1 <0>        -0.1095
     14 C10        -1.0653   -4.3788    2.1265 C.3       1 <0>        -0.1427
     15 C11        -1.2405   -4.5538    0.6311 C.3       1 <0>        -0.0935
     16 H2         -1.7504   -5.4843    0.3811 H         1 <0>         0.0888
     17 C12         0.1887   -4.4461    0.0164 C.3       1 <0>        -0.1068
     18 C13         0.4306   -2.9206   -0.0184 C.3       1 <0>         0.0363
     19 H3          0.9660   -2.6485   -0.9280 H         1 <0>         0.0731
     20 C14         1.2238   -2.5018    1.1926 C.2       1 <0>         0.4846
     21 O2          0.6885   -1.8587    2.0794 O.co2     1 <0>        -0.6555
     22 O3          2.4008   -2.8059    1.2854 O.co2     1 <0>        -0.6694
     23 Cl1         3.9862    1.7566   -0.0266 Cl        1 <0>        -0.0064
     24 H4         -0.9391    1.9445    0.0258 H         1 <0>         0.1446
     25 H5          1.2862    3.0741    0.0059 H         1 <0>         0.1305
     26 H6         -3.5446   -1.9812    0.3009 H         1 <0>         0.0950
     27 H7         -3.9327   -3.6917    0.5767 H         1 <0>         0.0578
     28 H8         -2.1852   -1.9500    2.3700 H         1 <0>         0.0744
     29 H9         -3.8576   -2.4622    2.7137 H         1 <0>         0.0506
     30 H10        -2.2680   -3.9630    3.8633 H         1 <0>         0.0538
     31 H11        -3.1173   -4.8538    2.5734 H         1 <0>         0.0486
     32 H12        -0.3674   -3.5630    2.3145 H         1 <0>         0.1133
     33 H13        -0.6658   -5.2981    2.5547 H         1 <0>         0.0502
     34 H14         0.9217   -4.9417    0.6530 H         1 <0>         0.0863
     35 H15         0.2081   -4.8600   -0.9918 H         1 <0>         0.0651
@<TRIPOS>BOND
     1    1    5 2
     2    1    2 1
     3    1   24 1
     4    2    3 2
     5    2   25 1
     6    3    4 1
     7    3   23 1
     8    4    5 1
     9    5    6 1
    10    6    7 2
    11    6    8 am
    12    8   18 1
    13    8    9 1
    14    9   10 1
    15    9   15 1
    16    9   11 1
    17   11   12 1
    18   11   26 1
    19   11   27 1
    20   12   13 1
    21   12   28 1
    22   12   29 1
    23   13   14 1
    24   13   30 1
    25   13   31 1
    26   14   15 1
    27   14   32 1
    28   14   33 1
    29   15   16 1
    30   15   17 1
    31   17   18 1
    32   17   34 1
    33   17   35 1
    34   18   19 1
    35   18   20 1
    36   20   21 2
    37   20   22 1
@<TRIPOS>MOLECULE
ZINC40476043
   26    28     0     0     0
SMALL
USER_CHARGES

@<TRIPOS>ATOM
      1 C1         -0.0167    1.3776    0.0096 C.ar      1 <0>        -0.1724
      2 C2          1.1849    2.0698    0.0019 C.ar      1 <0>        -0.0642
      3 C3          2.3651    1.3426   -0.0133 C.ar      1 <0>        -0.1310
      4 C4          2.3054   -0.0383   -0.0202 C.ar      1 <0>         0.1224
      5 N1          1.1443   -0.6632   -0.0129 N.ar      1 <0>        -0.4804
      6 C5          0.0021   -0.0041    0.0020 C.ar      1 <0>         0.0953
      7 C6          3.6964    2.0488   -0.0227 C.3       1 <0>         0.0729
      8 H1          3.5282    3.1257   -0.0157 H         1 <0>         0.0933
      9 C7          4.4336    1.6800   -1.2611 C.2       1 <0>        -0.2971
     10 C8          5.7618    1.4211   -1.4297 C.2       1 <0>         0.1228
     11 N2          6.1234    1.1235   -2.6775 N.2       1 <0>        -0.5583
     12 C9          5.2512    1.0804   -3.6613 C.2       1 <0>         0.2840
     13 S1          5.5353    0.7075   -5.3598 S.3       1 <0>        -0.7229
     14 S2          3.7972    1.4666   -2.9044 S.3       1 <0>         0.0532
     15 S3          6.8781    1.4874   -0.0458 S.3       1 <0>        -0.0550
     16 C10         5.8615    2.3174    1.2153 C.3       1 <0>        -0.1030
     17 C11         4.4780    1.6574    1.2299 C.3       1 <0>         0.0163
     18 H2          4.5936    0.5740    1.2600 H         1 <0>         0.1298
     19 C12         3.7400    2.1004    2.4240 C.1       1 <0>         0.2189
     20 N3          3.1704    2.4422    3.3456 N.1       1 <0>        -0.4242
     21 H3         -0.9552    1.9117    0.0259 H         1 <0>         0.1337
     22 H4          1.2009    3.1496    0.0072 H         1 <0>         0.1323
     23 H5          3.2203   -0.6121   -0.0320 H         1 <0>         0.1546
     24 H6         -0.9294   -0.5505    0.0083 H         1 <0>         0.1537
     25 H7          6.3301    2.2101    2.1935 H         1 <0>         0.1232
     26 H8          5.7622    3.3747    0.9692 H         1 <0>         0.1021
@<TRIPOS>BOND
     1    1    6 ar
     2    1    2 ar
     3    1   21 1
     4    2    3 ar
     5    2   22 1
     6    3    4 ar
     7    3    7 1
     8    4    5 ar
     9    4   23 1
    10    5    6 ar
    11    6   24 1
    12    7    8 1
    13    7   17 1
    14    7    9 1
    15    9   14 1
    16    9   10 2
    17   10   11 1
    18   10   15 1
    19   11   12 2
    20   12   13 1
    21   12   14 1
    22   15   16 1
    23   16   17 1
    24   16   25 1
    25   16   26 1
    26   17   18 1
    27   17   19 1
    28   19   20 3
@<TRIPOS>MOLECULE
ZINC57602260
   17    18     0     0     0
SMALL
USER_CHARGES

@<TRIPOS>ATOM
      1 C1         -0.0167    1.3783    0.0096 C.2       1 <0>        -0.1497
      2 C2          1.1833    2.0495    0.0018 C.2       1 <0>        -0.1279
      3 C3          2.3428    1.3382   -0.0131 C.2       1 <0>        -0.2592
      4 S1          1.7541   -0.3470   -0.0166 S.3       1 <0>         0.3382
      5 C4          0.0021   -0.0041    0.0020 C.2       1 <0>        -0.0967
      6 C5         -1.1281   -0.9475    0.0082 C.2       1 <0>         0.1554
      7 C6         -1.0836   -2.1752   -0.6771 C.2       1 <0>        -0.1722
      8 S2         -2.7012   -2.8234   -0.2872 S.3       1 <0>         0.1698
      9 C7         -3.2495   -1.5436    0.6570 C.2       1 <0>        -0.0061
     10 N1         -2.2477   -0.6997    0.6615 N.2       1 <0>        -0.5026
     11 C8         -0.0505   -2.7368   -1.4553 C.2       1 <0>         0.4955
     12 O1          1.0938   -2.0744   -1.6216 O.co2     1 <0>        -0.6471
     13 O2         -0.2184   -3.9300   -2.0245 O.co2     1 <0>        -0.6724
     14 Br1         4.1241    1.9729   -0.0273 Br        1 <0>         0.0032
     15 H1         -0.9519    1.9183    0.0259 H         1 <0>         0.1311
     16 H2          1.2051    3.1293    0.0070 H         1 <0>         0.1240
     17 H3         -4.2056   -1.4426    1.1490 H         1 <0>         0.2169
@<TRIPOS>BOND
     1    1    5 2
     2    1    2 1
     3    1   15 1
     4    2    3 2
     5    2   16 1
     6    3    4 1
     7    3   14 1
     8    4    5 1
     9    5    6 1
    10    6   10 1
    11    6    7 2
    12    7    8 1
    13    7   11 1
    14    8    9 1
    15    9   10 2
    16    9   17 1
    17   11   12 2
    18   11   13 1
@<TRIPOS>MOLECULE
ZINC11993578
   27    27     0     0     0
SMALL
USER_CHARGES
(2R)-2-(2-chlorophenyl)sulfanyl-3-methyl-butanoic acid
@<TRIPOS>ATOM
      1 C1          1.5314   -2.3256   -1.6247 C.3       1 <0>        -0.1485
      2 C2          2.1866   -1.8575   -0.3237 C.3       1 <0>        -0.0619
      3 C3          3.7085   -1.9259   -0.4659 C.3       1 <0>        -0.1367
      4 C4          1.7660   -0.4159   -0.0308 C.3       1 <0>        -0.1193
      5 H1          2.0579    0.2241   -0.8634 H         1 <0>         0.0844
      6 C5          2.4431    0.0587    1.2291 C.2       1 <0>         0.4736
      7 O1          3.1427    1.0436    1.2047 O.co2     1 <0>        -0.6301
      8 S1         -0.0335   -0.3432    0.1858 S.3       1 <0>        -0.0691
      9 C6         -0.3722    1.3766    0.3647 C.ar      1 <0>        -0.0731
     10 C7          0.6655    2.2994    0.3180 C.ar      1 <0>        -0.1199
     11 C8          0.3965    3.6466    0.4586 C.ar      1 <0>        -0.0964
     12 C9         -0.9041    4.0784    0.6454 C.ar      1 <0>        -0.1285
     13 C10        -1.9401    3.1636    0.6921 C.ar      1 <0>        -0.1031
     14 C11        -1.6794    1.8143    0.5473 C.ar      1 <0>        -0.0297
     15 Cl1        -2.9811    0.6669    0.5987 Cl        1 <0>        -0.0685
     16 H2          1.8490   -1.6808   -2.4440 H         1 <0>         0.0521
     17 H3          1.8310   -3.3526   -1.8334 H         1 <0>         0.0534
     18 H4          0.4472   -2.2769   -1.5234 H         1 <0>         0.0609
     19 H5          1.8689   -2.5023    0.4956 H         1 <0>         0.0847
     20 H6          4.0357   -1.2080   -1.2180 H         1 <0>         0.0504
     21 H7          4.1738   -1.6876    0.4905 H         1 <0>         0.0632
     22 H8          4.0001   -2.9307   -0.7715 H         1 <0>         0.0529
     23 H9          1.6815    1.9633    0.1722 H         1 <0>         0.1617
     24 H10         1.2029    4.3640    0.4224 H         1 <0>         0.1269
     25 H11        -1.1111    5.1327    0.7547 H         1 <0>         0.1268
     26 H12        -2.9546    3.5044    0.8374 H         1 <0>         0.1301
     27 O2          2.2691   -0.6126    2.3784 O.co2     1 <0>        -0.7364
@<TRIPOS>BOND
     1    1    2 1
     2    1   16 1
     3    1   17 1
     4    1   18 1
     5    2    3 1
     6    2    4 1
     7    2   19 1
     8    3   20 1
     9    3   21 1
    10    3   22 1
    11    4    5 1
    12    4    6 1
    13    4    8 1
    14    6    7 2
    15    6   27 1
    16    8    9 1
    17    9   14 ar
    18    9   10 ar
    19   10   11 ar
    20   10   23 1
    21   11   12 ar
    22   11   24 1
    23   12   13 ar
    24   12   25 1
    25   13   14 ar
    26   13   26 1
    27   14   15 1
@<TRIPOS>MOLECULE
ZINC06953698
   24    24     0     0     0
SMALL
USER_CHARGES
1-(4-chlorophenyl)-4,4,5,5-tetrafluoro-pentane-1,3-dione
@<TRIPOS>ATOM
      1 C1         -1.3208    3.3252    0.0322 C.ar      1 <0>        -0.0743
      2 C2         -2.5273    3.9913    0.0352 C.ar      1 <0>        -0.1257
      3 C3         -3.7158    3.2790    0.0369 C.ar      1 <0>        -0.0361
      4 C4         -3.7009    1.8934    0.0298 C.ar      1 <0>        -0.1235
      5 C5         -2.5020    1.2139    0.0205 C.ar      1 <0>        -0.0775
      6 C6         -1.2981    1.9265    0.0187 C.ar      1 <0>        -0.1064
      7 C7         -0.0144    1.2084    0.0087 C.2       1 <0>         0.3862
      8 O1          0.0021   -0.0041    0.0020 O.3       1 <0>        -0.5127
      9 C8          1.2803    1.9796    0.0005 C.2       1 <0>        -0.6004
     10 C9          2.4389    1.0160   -0.0158 C.2       1 <0>         0.3350
     11 O2          2.2344   -0.1741   -0.0202 O.2       1 <0>        -0.4723
     12 C10         3.8527    1.5376   -0.0265 C.3       1 <0>         0.2120
     13 C11         4.0335    2.4967   -1.2047 C.3       1 <0>         0.2422
     14 F1          5.3460    2.9810   -1.2147 F         1 <0>        -0.2041
     15 F2          3.7775    1.8188   -2.4014 F         1 <0>        -0.1852
     16 F3          4.1087    2.2156    1.1702 F         1 <0>        -0.1797
     17 F4          4.7438    0.4670   -0.1557 F         1 <0>        -0.1836
     18 Cl1        -5.2309    4.1264    0.0475 Cl        1 <0>        -0.0880
     19 H1         -0.3952    3.8817    0.0354 H         1 <0>         0.1406
     20 H2         -2.5465    5.0712    0.0407 H         1 <0>         0.1289
     21 H3         -4.6311    1.3446    0.0313 H         1 <0>         0.1281
     22 H4         -2.4918    0.1340    0.0143 H         1 <0>         0.1363
     23 H5          1.2654    3.0795    0.0066 H         1 <0>         0.1157
     24 H6          3.3682    3.3724   -1.1830 H         1 <0>         0.1445
@<TRIPOS>BOND
     1    1    6 ar
     2    1    2 ar
     3    1   19 1
     4    2    3 ar
     5    2   20 1
     6    3    4 ar
     7    3   18 1
     8    4    5 ar
     9    4   21 1
    10    5    6 ar
    11    5   22 1
    12    6    7 1
    13    7    8 1
    14    7    9 2
    15    9   10 1
    16    9   23 1
    17   10   11 2
    18   10   12 1
    19   12   13 1
    20   12   16 1
    21   12   17 1
    22   13   14 1
    23   13   15 1
    24   13   24 1
@<TRIPOS>MOLECULE
ZINC41569123
   23    24     0     0     0
SMALL
USER_CHARGES

@<TRIPOS>ATOM
      1 C1         -0.0187    1.5258    0.0104 C.3       1 <0>        -0.1428
      2 C2          0.0021   -0.0041    0.0020 C.3       1 <0>        -0.0476
      3 C3          0.7182   -0.4975   -1.2568 C.3       1 <0>        -0.1429
      4 C4          0.7309   -0.5033    1.2229 C.ar      1 <0>        -0.0702
      5 C5          0.0785   -1.3138    2.1262 C.ar      1 <0>        -0.1053
      6 C6          0.7544   -1.7758    3.2560 C.ar      1 <0>         0.1061
      7 C7          2.0931   -1.4110    3.4626 C.ar      1 <0>        -0.0181
      8 C8          2.7345   -0.5943    2.5446 C.ar      1 <0>        -0.0420
      9 C9          2.0553   -0.1490    1.4274 C.ar      1 <0>        -0.1275
     10 Br1         4.5390   -0.0983    2.8164 Br        1 <0>        -0.0702
     11 O1          2.4741   -1.9996    4.6194 O.3       1 <0>        -0.2641
     12 C10         1.4281   -2.6911    5.1026 C.2       1 <0>         0.5147
     13 O2          1.4377   -3.4097    6.2476 O.3       1 <0>        -0.6420
     14 N1          0.4008   -2.5682    4.3053 N.2       1 <0>        -0.6079
     15 H1          1.0039    1.9031    0.0027 H         1 <0>         0.0562
     16 H2         -0.5459    1.8868   -0.8726 H         1 <0>         0.0531
     17 H3         -0.5289    1.8773    0.9072 H         1 <0>         0.0560
     18 H4         -1.0205   -0.3814    0.0098 H         1 <0>         0.0768
     19 H5          1.7408   -0.1202   -1.2645 H         1 <0>         0.0562
     20 H6          0.7330   -1.5874   -1.2628 H         1 <0>         0.0561
     21 H7          0.1910   -0.1364   -2.1398 H         1 <0>         0.0531
     22 H8         -0.9524   -1.5901    1.9605 H         1 <0>         0.1238
     23 H9          2.5581    0.4834    0.7107 H         1 <0>         0.1285
@<TRIPOS>BOND
     1    1    2 1
     2    1   15 1
     3    1   16 1
     4    1   17 1
     5    2    3 1
     6    2    4 1
     7    2   18 1
     8    3   19 1
     9    3   20 1
    10    3   21 1
    11    4    9 ar
    12    4    5 ar
    13    5    6 ar
    14    5   22 1
    15    6   14 1
    16    6    7 ar
    17    7    8 ar
    18    7   11 1
    19    8    9 ar
    20    8   10 1
    21    9   23 1
    22   11   12 1
    23   12   13 1
    24   12   14 2
@<TRIPOS>MOLECULE
ZINC49835997
   26    27     0     0     0
SMALL
USER_CHARGES

@<TRIPOS>ATOM
      1 C1         -0.0184    1.5028    0.0103 C.3       1 <0>        -0.1133
      2 C2          0.0021   -0.0041    0.0020 C.ar      1 <0>        -0.0865
      3 C3          0.0057   -0.6864   -1.2014 C.ar      1 <0>        -0.1263
      4 C4          0.0243   -2.0661   -1.2154 C.ar      1 <0>        -0.0786
      5 C5          0.0396   -2.7726   -0.0132 C.ar      1 <0>        -0.0390
      6 C6          0.0359   -2.0792    1.1966 C.ar      1 <0>        -0.0996
      7 C7          0.0229   -0.6994    1.1978 C.ar      1 <0>        -0.1248
      8 C8          0.0592   -4.2544   -0.0214 C.ar      1 <0>         0.1611
      9 C9          0.0686   -4.9491    1.1889 C.ar      1 <0>        -0.1763
     10 C10         0.0864   -6.3287    1.1748 C.ar      1 <0>        -0.0345
     11 C11         0.0944   -6.9832   -0.0667 C.ar      1 <0>        -0.1654
     12 C12         0.0842   -6.2175   -1.2384 C.ar      1 <0>         0.2019
     13 N1          0.0621   -4.9027   -1.1801 N.ar      1 <0>        -0.4882
     14 Cl1         0.0939   -7.0096   -2.7832 Cl        1 <0>        -0.0020
     15 C13         0.1138   -8.4542   -0.1357 C.2       1 <0>         0.5209
     16 O1          0.1231   -9.1147    0.8939 O.co2     1 <0>        -0.6841
     17 O2          0.1207   -9.0155   -1.2226 O.co2     1 <0>        -0.6558
     18 H1          1.0042    1.8801    0.0026 H         1 <0>         0.0689
     19 H2         -0.5455    1.8639   -0.8728 H         1 <0>         0.0649
     20 H3         -0.5286    1.8543    0.9071 H         1 <0>         0.0646
     21 H4         -0.0065   -0.1382   -2.1318 H         1 <0>         0.1223
     22 H5          0.0268   -2.5977   -2.1555 H         1 <0>         0.1355
     23 H6          0.0473   -2.6211    2.1308 H         1 <0>         0.1276
     24 H7          0.0248   -0.1612    2.1342 H         1 <0>         0.1229
     25 H8          0.0623   -4.4127    2.1263 H         1 <0>         0.1356
     26 H9          0.0943   -6.8912    2.0967 H         1 <0>         0.1480
@<TRIPOS>BOND
     1    1    2 1
     2    1   18 1
     3    1   19 1
     4    1   20 1
     5    2    7 ar
     6    2    3 ar
     7    3    4 ar
     8    3   21 1
     9    4    5 ar
    10    4   22 1
    11    5    6 ar
    12    5    8 1
    13    6    7 ar
    14    6   23 1
    15    7   24 1
    16    8   13 ar
    17    8    9 ar
    18    9   10 ar
    19    9   25 1
    20   10   11 ar
    21   10   26 1
    22   11   12 ar
    23   11   15 1
    24   12   13 ar
    25   12   14 1
    26   15   16 2
    27   15   17 1
@<TRIPOS>MOLECULE
ZINC62766372
   40    41     0     0     0
SMALL
USER_CHARGES

@<TRIPOS>ATOM
      1 C1          0.8038   -0.3231   -1.2512 C.3       1 <0>        -0.1225
      2 C2         -0.0979   -0.1938   -0.0219 C.3       1 <0>        -0.1112
      3 C3         -1.3400   -1.0679   -0.2063 C.3       1 <0>        -0.1417
      4 S1          0.8090   -0.7352    1.4529 S.3       1 <0>        -0.1664
      5 C4         -0.3016   -0.3234    2.8268 C.3       1 <0>        -0.0263
      6 H1         -1.2846   -0.7565    2.6417 H         1 <0>         0.0626
      7 C5         -0.4279    1.1970    2.9424 C.3       1 <0>        -0.0988
      8 C6         -1.3646    1.5443    4.1012 C.3       1 <0>        -0.0464
      9 H2         -2.3476    1.1112    3.9161 H         1 <0>         0.0668
     10 C7         -0.7954    0.9793    5.4041 C.3       1 <0>        -0.1071
     11 C8         -0.6691   -0.5411    5.2884 C.3       1 <0>        -0.0838
     12 C9          0.2676   -0.8884    4.1297 C.3       1 <0>        -0.1481
     13 H3          0.3575   -1.9716    4.0473 H         1 <0>         0.0663
     14 C10         1.6266   -0.2895    4.3855 C.2       1 <0>         0.4968
     15 O1          2.0210   -0.1393    5.5293 O.co2     1 <0>        -0.6989
     16 O2          2.3317    0.0448    3.4487 O.co2     1 <0>        -0.6590
     17 C11        -1.4890    3.0419    4.2150 C.ar      1 <0>        -0.0629
     18 C12        -0.3652    3.8132    4.4452 C.ar      1 <0>        -0.1067
     19 C13        -0.4792    5.1869    4.5497 C.ar      1 <0>        -0.1189
     20 C14        -1.7170    5.7893    4.4235 C.ar      1 <0>        -0.1332
     21 C15        -2.8407    5.0180    4.1924 C.ar      1 <0>        -0.1251
     22 C16        -2.7260    3.6447    4.0837 C.ar      1 <0>        -0.1229
     23 H4          1.1063   -1.3633   -1.3721 H         1 <0>         0.0572
     24 H5          0.2589    0.0022   -2.1374 H         1 <0>         0.0551
     25 H6          1.6887    0.2997   -1.1198 H         1 <0>         0.0630
     26 H7         -0.4003    0.8464    0.0990 H         1 <0>         0.0753
     27 H8         -1.0375   -2.1081   -0.3273 H         1 <0>         0.0607
     28 H9         -1.9824   -0.9758    0.6694 H         1 <0>         0.0498
     29 H10        -1.8849   -0.7426   -1.0925 H         1 <0>         0.0487
     30 H11         0.5551    1.6302    3.1274 H         1 <0>         0.0915
     31 H12        -0.8334    1.5996    2.0142 H         1 <0>         0.0482
     32 H13         0.1876    1.4125    5.5891 H         1 <0>         0.0820
     33 H14        -1.4628    1.2267    6.2296 H         1 <0>         0.0506
     34 H15        -0.2636   -0.9436    6.2167 H         1 <0>         0.0700
     35 H16        -1.6521   -0.9743    5.1034 H         1 <0>         0.0404
     36 H17         0.6019    3.3426    4.5438 H         1 <0>         0.1280
     37 H18         0.3987    5.7895    4.7302 H         1 <0>         0.1192
     38 H19        -1.8062    6.8624    4.5058 H         1 <0>         0.1155
     39 H20        -3.8078    5.4886    4.0942 H         1 <0>         0.1156
     40 H21        -3.6034    3.0424    3.8994 H         1 <0>         0.1165
@<TRIPOS>BOND
     1    1    2 1
     2    1   23 1
     3    1   24 1
     4    1   25 1
     5    2    3 1
     6    2    4 1
     7    2   26 1
     8    3   27 1
     9    3   28 1
    10    3   29 1
    11    4    5 1
    12    5    6 1
    13    5   12 1
    14    5    7 1
    15    7    8 1
    16    7   30 1
    17    7   31 1
    18    8    9 1
    19    8   10 1
    20    8   17 1
    21   10   11 1
    22   10   32 1
    23   10   33 1
    24   11   12 1
    25   11   34 1
    26   11   35 1
    27   12   13 1
    28   12   14 1
    29   14   15 2
    30   14   16 1
    31   17   22 ar
    32   17   18 ar
    33   18   19 ar
    34   18   36 1
    35   19   20 ar
    36   19   37 1
    37   20   21 ar
    38   20   38 1
    39   21   22 ar
    40   21   39 1
    41   22   40 1
@<TRIPOS>MOLECULE
ZINC04559516
   53    55     0     0     0
SMALL
USER_CHARGES
5-ethyl-6-[(4-morpholinocarbonylphenyl)carbamoyl]cyclohex-3-ene-1-carboxylic acid
@<TRIPOS>ATOM
      1 C1          2.4997   -2.7716   -2.8558 C.3       1 <0>        -0.1475
      2 C2          2.1412   -1.9183   -1.6374 C.3       1 <0>        -0.1217
      3 C3          2.8520   -0.5669   -1.7342 C.3       1 <0>        -0.0390
      4 H1          2.6385   -0.1150   -2.7028 H         1 <0>         0.0830
      5 C4          4.3324   -0.7728   -1.6000 C.2       1 <0>        -0.1653
      6 C5          5.1087   -0.0161   -0.8926 C.2       1 <0>        -0.1154
      7 C6          4.6374    1.1709   -0.1027 C.3       1 <0>        -0.0711
      8 C7          3.2442    1.5953   -0.5723 C.3       1 <0>        -0.1172
      9 H2          3.3117    2.0389   -1.5657 H         1 <0>         0.0828
     10 C8          2.3449    0.3537   -0.6221 C.3       1 <0>        -0.0807
     11 H3          1.3184    0.6530   -0.8337 H         1 <0>         0.0893
     12 C9          2.4042   -0.3681    0.6995 C.2       1 <0>         0.5467
     13 O1          3.4351   -0.8993    1.0546 O.2       1 <0>        -0.5185
     14 N1          1.3118   -0.4233    1.4869 N.am      1 <0>        -0.6559
     15 C10         1.3791   -1.0521    2.7296 C.ar      1 <0>         0.2034
     16 C11         2.5836   -1.0878    3.4251 C.ar      1 <0>        -0.1374
     17 C12         2.6522   -1.7028    4.6549 C.ar      1 <0>        -0.0790
     18 C13         1.5130   -2.3020    5.1992 C.ar      1 <0>        -0.1757
     19 C14         0.3061   -2.2693    4.4954 C.ar      1 <0>        -0.0364
     20 C15         0.2430   -1.6473    3.2689 C.ar      1 <0>        -0.1674
     21 C16         1.5845   -2.9684    6.5142 C.2       1 <0>         0.5719
     22 O2          0.8415   -3.8972    6.7663 O.2       1 <0>        -0.5431
     23 N2          2.4734   -2.5473    7.4356 N.am      1 <0>        -0.6143
     24 C17         3.3215   -1.3705    7.1877 C.3       1 <0>         0.0486
     25 C18         3.2016   -0.4301    8.3976 C.3       1 <0>         0.0457
     26 O3          3.4722   -1.1666    9.5927 O.3       1 <0>        -0.3807
     27 C19         2.5465   -2.2252    9.8500 C.3       1 <0>         0.0482
     28 C20         2.6288   -3.2543    8.7168 C.3       1 <0>         0.0775
     29 C21         2.6685    2.5995    0.3928 C.2       1 <0>         0.4651
     30 O4          1.6299    2.3627    0.9629 O.co2     1 <0>        -0.6374
     31 H4          1.9934   -3.7343   -2.7868 H         1 <0>         0.0495
     32 H5          2.1834   -2.2589   -3.7642 H         1 <0>         0.0526
     33 H6          3.5779   -2.9293   -2.8843 H         1 <0>         0.0558
     34 H7          2.4575   -2.4310   -0.7290 H         1 <0>         0.0653
     35 H8          1.0630   -1.7606   -1.6090 H         1 <0>         0.0599
     36 H9          4.7778   -1.6043   -2.1260 H         1 <0>         0.0969
     37 H10         6.1627   -0.2505   -0.8720 H         1 <0>         0.0940
     38 H11         5.3326    1.9993   -0.2390 H         1 <0>         0.0722
     39 H12         4.5973    0.9056    0.9538 H         1 <0>         0.0767
     40 H13         0.4787   -0.0257    1.1890 H         1 <0>         0.4170
     41 H14         3.4648   -0.6290    3.0015 H         1 <0>         0.1512
     42 H15         3.5865   -1.7267    5.1961 H         1 <0>         0.1387
     43 H16        -0.5761   -2.7311    4.9134 H         1 <0>         0.1319
     44 H17        -0.6894   -1.6216    2.7245 H         1 <0>         0.1312
     45 H18         4.3580   -1.6845    7.0645 H         1 <0>         0.0818
     46 H19         2.9833   -0.8574    6.2875 H         1 <0>         0.1217
     47 H20         2.1932   -0.0188    8.4439 H         1 <0>         0.0587
     48 H21         3.9219    0.3822    8.2995 H         1 <0>         0.1098
     49 H22         1.5357   -1.8205    9.9015 H         1 <0>         0.0560
     50 H23         2.7951   -2.7052   10.7965 H         1 <0>         0.1055
     51 H24         1.8318   -3.9891    8.8296 H         1 <0>         0.1017
     52 H25         3.5965   -3.7552    8.7446 H         1 <0>         0.0754
     53 O5          3.3066    3.7593    0.6147 O.co2     1 <0>        -0.7623
@<TRIPOS>BOND
     1    1    2 1
     2    1   31 1
     3    1   32 1
     4    1   33 1
     5    2    3 1
     6    2   34 1
     7    2   35 1
     8    3    4 1
     9    3   10 1
    10    3    5 1
    11    5    6 2
    12    5   36 1
    13    6    7 1
    14    6   37 1
    15    7    8 1
    16    7   38 1
    17    7   39 1
    18    8    9 1
    19    8   10 1
    20    8   29 1
    21   10   11 1
    22   10   12 1
    23   12   13 2
    24   12   14 am
    25   14   15 1
    26   14   40 1
    27   15   20 ar
    28   15   16 ar
    29   16   17 ar
    30   16   41 1
    31   17   18 ar
    32   17   42 1
    33   18   19 ar
    34   18   21 1
    35   19   20 ar
    36   19   43 1
    37   20   44 1
    38   21   22 2
    39   21   23 am
    40   23   28 1
    41   23   24 1
    42   24   25 1
    43   24   45 1
    44   24   46 1
    45   25   26 1
    46   25   47 1
    47   25   48 1
    48   26   27 1
    49   27   28 1
    50   27   49 1
    51   27   50 1
    52   28   51 1
    53   28   52 1
    54   29   30 2
    55   29   53 1
@<TRIPOS>MOLECULE
ZINC20032392
   53    56     0     0     0
SMALL
USER_CHARGES
(6E)-6-[[3-chloro-4-[2-(3,5-dimethylphenoxy)ethoxy]phenyl]methylene]-5-imino-3-methyl-thiazolo[3,2-a]pyrimidin-7-one
@<TRIPOS>ATOM
      1 C1         -2.0189    3.8895    5.5667 C.3       1 <0>        -0.1180
      2 C2         -2.5053    2.8073    4.6375 C.ar      1 <0>        -0.0438
      3 C3         -3.6872    2.1434    4.9091 C.ar      1 <0>        -0.1628
      4 C4         -4.1366    1.1507    4.0581 C.ar      1 <0>        -0.0432
      5 C5         -3.4051    0.8195    2.9340 C.ar      1 <0>        -0.1576
      6 C6         -2.2186    1.4839    2.6594 C.ar      1 <0>         0.1424
      7 C7         -1.7669    2.4756    3.5180 C.ar      1 <0>        -0.2192
      8 O1         -1.4971    1.1599    1.5543 O.3       1 <0>        -0.3030
      9 C8         -0.2857    1.8854    1.3347 C.3       1 <0>         0.0626
     10 C9          0.3831    1.3853    0.0527 C.3       1 <0>         0.0548
     11 O2         -0.4487    1.6902   -1.0686 O.3       1 <0>        -0.2944
     12 C10         0.0021    1.3112   -2.2912 C.ar      1 <0>         0.1542
     13 C11         1.2241    0.6574   -2.4068 C.ar      1 <0>        -0.1990
     14 C12         1.6855    0.2719   -3.6330 C.ar      1 <0>        -0.0075
     15 C13         0.9263    0.5344   -4.7823 C.ar      1 <0>        -0.0930
     16 C14        -0.3060    1.1937   -4.6665 C.ar      1 <0>        -0.0454
     17 C15        -0.7632    1.5733   -3.4242 C.ar      1 <0>        -0.0766
     18 Cl1        -2.2907    2.3839   -3.2717 Cl        1 <0>        -0.0619
     19 C16         1.4187    0.1221   -6.0988 C.2       1 <0>         0.0261
     20 C17         2.1750   -1.0213   -6.2236 C.2       1 <0>        -0.1886
     21 C18         2.3757   -1.9598   -5.0836 C.2       1 <0>         0.4020
     22 N1          1.4718   -2.1770   -4.1664 N.2       1 <0>        -0.6549
     23 N2          3.6348   -2.5951   -5.0903 N.pl3     1 <0>        -0.5192
     24 C19         4.2348   -3.1565   -4.0005 C.2       1 <0>         0.1635
     25 C20         5.4005   -3.7916   -4.1512 C.2       1 <0>        -0.4329
     26 S1          5.7089   -3.5965   -5.8994 S.3       1 <0>         0.1273
     27 C21         4.3048   -2.6782   -6.2915 C.2       1 <0>         0.3696
     28 N3          3.9391   -2.1610   -7.4419 N.2       1 <0>        -0.5962
     29 C22         2.8408   -1.3846   -7.4994 C.2       1 <0>         0.5486
     30 O3          2.4051   -0.9912   -8.5694 O.2       1 <0>        -0.4964
     31 C23         3.5892   -3.0614   -2.6421 C.2       1 <0>        -0.5234
     32 C24        -5.4259    0.4297    4.3567 C.3       1 <0>        -0.1176
     33 H1         -2.7335    4.0108    6.3942 H         1 <0>         0.0667
     34 H2         -1.9339    4.8366    5.0138 H         1 <0>         0.0706
     35 H3         -1.0343    3.6110    5.9703 H         1 <0>         0.0707
     36 H4         -4.2606    2.4008    5.7874 H         1 <0>         0.1213
     37 H5         -3.7567    0.0442    2.2694 H         1 <0>         0.1307
     38 H6         -0.8412    2.9912    3.3088 H         1 <0>         0.1260
     39 H7         -0.5130    2.9571    1.2357 H         1 <0>         0.0758
     40 H8          0.3933    1.7318    2.1864 H         1 <0>         0.0866
     41 H9          1.3583    1.8795   -0.0689 H         1 <0>         0.0884
     42 H10         0.5291    0.2969    0.1158 H         1 <0>         0.0824
     43 H11         1.8105    0.4534   -1.5231 H         1 <0>         0.1343
     44 H12         2.6351   -0.2355   -3.7175 H         1 <0>         0.1242
     45 H13        -0.8960    1.3991   -5.5475 H         1 <0>         0.1430
     46 H14         1.1841    0.7261   -6.9877 H         1 <0>         0.1536
     47 H15         1.6775   -2.8821   -3.3476 H         1 <0>         0.3978
     48 H16         5.8899   -4.2563   -3.2826 H         1 <0>         0.1849
     49 H17         4.3611   -3.0559   -1.8726 H         1 <0>         0.0214
     50 H18         3.0076   -2.1416   -2.5799 H         1 <0>         0.0126
     51 H19        -5.6170   -0.3191    3.5739 H         1 <0>         0.0684
     52 H20        -6.2536    1.1537    4.3814 H         1 <0>         0.0720
     53 H21        -5.3480   -0.0717    5.3327 H         1 <0>         0.0721
@<TRIPOS>BOND
     1    1    2 1
     2    1   33 1
     3    1   34 1
     4    1   35 1
     5    2    7 ar
     6    2    3 ar
     7    3    4 ar
     8    3   36 1
     9    4    5 ar
    10    4   32 1
    11    5    6 ar
    12    5   37 1
    13    6    7 ar
    14    6    8 1
    15    7   38 1
    16    8    9 1
    17    9   10 1
    18    9   39 1
    19    9   40 1
    20   10   11 1
    21   10   41 1
    22   10   42 1
    23   11   12 1
    24   12   17 ar
    25   12   13 ar
    26   13   14 ar
    27   13   43 1
    28   14   15 ar
    29   14   44 1
    30   15   16 ar
    31   15   19 1
    32   16   17 ar
    33   16   45 1
    34   17   18 1
    35   19   20 2
    36   19   46 1
    37   20   29 1
    38   20   21 1
    39   21   22 2
    40   21   23 1
    41   22   47 1
    42   23   27 1
    43   23   24 1
    44   24   25 2
    45   24   31 1
    46   25   26 1
    47   25   48 1
    48   26   27 1
    49   27   28 2
    50   28   29 1
    51   29   30 2
    52   31   49 1
    53   31   50 1
    54   32   51 1
    55   32   52 1
    56   32   53 1
@<TRIPOS>MOLECULE
ZINC38337268
   32    33     0     0     0
SMALL
USER_CHARGES

@<TRIPOS>ATOM
      1 C1          0.7503    0.0529   -1.1838 C.ar      1 <0>        -0.1320
      2 C2          1.9344    0.7637   -1.2097 C.ar      1 <0>        -0.0730
      3 C3          2.3732    1.4203   -0.0737 C.ar      1 <0>        -0.0938
      4 C4          1.6272    1.3668    1.0902 C.ar      1 <0>        -0.0715
      5 C5          0.4423    0.6575    1.1204 C.ar      1 <0>        -0.1119
      6 C6          0.0006   -0.0021   -0.0176 C.ar      1 <0>         0.0972
      7 O1         -1.1649   -0.7005    0.0099 O.3       1 <0>        -0.2313
      8 C7         -1.1008   -2.0531   -0.1026 C.ar      1 <0>         0.1915
      9 C8          0.1310   -2.6924   -0.1107 C.ar      1 <0>        -0.2061
     10 C9          0.1933   -4.0674   -0.2252 C.ar      1 <0>        -0.0137
     11 C10        -0.9703   -4.8071   -0.3317 C.ar      1 <0>        -0.0770
     12 C11        -2.1986   -4.1727   -0.3243 C.ar      1 <0>        -0.0032
     13 C12        -2.2668   -2.7981   -0.2038 C.ar      1 <0>        -0.1308
     14 C13        -3.6064   -2.1078   -0.1887 C.3       1 <0>        -0.4364
     15 H1         -3.6208   -1.3599    0.6041 H         1 <0>         0.1321
     16 O2         -3.8283   -1.4709   -1.4485 O.3       1 <0>        -0.5349
     17 P1         -4.9196   -3.3363    0.1109 P.3       1 <0>         2.1418
     18 H2         -5.1347   -4.0965   -1.0690 H         1 <0>        -0.4608
     19 O3         -4.4922   -4.2774    1.2592 O.2       1 <0>        -1.0400
     20 O4         -6.2260   -2.6091    0.5002 O.3       1 <0>        -1.0433
     21 N1         -0.9005   -6.2806   -0.4543 N.pl3     1 <0>         0.0413
     22 O5          0.1732   -6.8364   -0.4612 O.2       1 <0>        -0.1732
     23 O6         -1.9171   -6.9282   -0.5474 O.3       1 <0>        -0.1434
     24 Br1         3.9952    2.3916   -0.1117 Br        1 <0>        -0.0420
     25 H3          0.4061   -0.4561   -2.0720 H         1 <0>         0.1411
     26 H4          2.5183    0.8067   -2.1172 H         1 <0>         0.1425
     27 H5          1.9717    1.8798    1.9760 H         1 <0>         0.1449
     28 H6         -0.1397    0.6160    2.0292 H         1 <0>         0.1466
     29 H7          1.0400   -2.1152   -0.0279 H         1 <0>         0.1507
     30 H8          1.1517   -4.5653   -0.2319 H         1 <0>         0.1590
     31 H9         -3.1059   -4.7526   -0.4084 H         1 <0>         0.1667
     32 H10        -3.8285   -2.0777   -2.2014 H         1 <0>         0.3626
@<TRIPOS>BOND
     1    1    6 ar
     2    1    2 ar
     3    1   25 1
     4    2    3 ar
     5    2   26 1
     6    3    4 ar
     7    3   24 1
     8    4    5 ar
     9    4   27 1
    10    5    6 ar
    11    5   28 1
    12    6    7 1
    13    7    8 1
    14    8   13 ar
    15    8    9 ar
    16    9   10 ar
    17    9   29 1
    18   10   11 ar
    19   10   30 1
    20   11   12 ar
    21   11   21 1
    22   12   13 ar
    23   12   31 1
    24   13   14 1
    25   14   15 1
    26   14   16 1
    27   14   17 1
    28   16   32 1
    29   17   18 1
    30   17   19 2
    31   17   20 1
    32   21   22 2
    33   21   23 1
@<TRIPOS>MOLECULE
ZINC27461093
   46    48     0     0     0
SMALL
USER_CHARGES

@<TRIPOS>ATOM
      1 C1          1.3182    1.7081   -0.0974 C.ar      1 <0>        -0.0805
      2 C2          2.6777    1.9785   -0.1450 C.ar      1 <0>        -0.1867
      3 C3          3.5680    0.9084   -0.1680 C.ar      1 <0>         0.2627
      4 C4          3.0699   -0.3838   -0.1426 C.ar      1 <0>        -0.0351
      5 N1          1.7630   -0.6031   -0.0975 N.ar      1 <0>        -0.1418
      6 C5          0.8909    0.3963   -0.0743 C.ar      1 <0>        -0.0660
      7 C6          1.3000   -1.8990   -0.0738 C.2       1 <0>        -0.3588
      8 C7          0.6073   -2.3710    1.0392 C.2       1 <0>         0.4528
      9 N2          0.3874   -1.5461    2.1088 N.pl3     1 <0>        -0.7091
     10 C8         -0.3410   -2.0424    3.2790 C.3       1 <0>         0.1471
     11 C9         -1.8455   -1.8956    3.0434 C.3       1 <0>        -0.1247
     12 C10        -2.6062   -2.4139    4.2655 C.3       1 <0>        -0.1136
     13 C11        -2.2018   -1.6042    5.4991 C.3       1 <0>        -0.1196
     14 C12        -0.6972   -1.7510    5.7348 C.3       1 <0>        -0.1125
     15 C13         0.0634   -1.2326    4.5126 C.3       1 <0>        -0.1275
     16 S1          0.0146   -4.0300    1.0695 S.3       1 <0>        -0.7778
     17 C14         1.5265   -2.7485   -1.1752 C.2       1 <0>         0.5017
     18 O1          2.2580   -3.7171   -1.0579 O.2       1 <0>        -0.4317
     19 C15         0.8768   -2.4651   -2.4739 C.ar      1 <0>        -0.1316
     20 C16        -0.0495   -1.4268   -2.5820 C.ar      1 <0>        -0.0580
     21 C17        -0.6520   -1.1672   -3.7951 C.ar      1 <0>        -0.1245
     22 C18        -0.3394   -1.9347   -4.9049 C.ar      1 <0>        -0.0178
     23 C19         0.5788   -2.9666   -4.8035 C.ar      1 <0>        -0.1239
     24 C20         1.1922   -3.2314   -3.5970 C.ar      1 <0>        -0.0572
     25 Cl1        -1.1017   -1.6022   -6.4287 Cl        1 <0>        -0.0768
     26 O2          4.9083    1.1289   -0.2151 O.3       1 <0>        -0.6606
     27 H1          0.6017    2.5159   -0.0741 H         1 <0>         0.1431
     28 H2          3.0377    2.9966   -0.1642 H         1 <0>         0.1331
     29 H3          3.7525   -1.2206   -0.1601 H         1 <0>         0.1661
     30 H4         -0.1667    0.1805   -0.0372 H         1 <0>         0.1619
     31 H5          0.7137   -0.6327    2.0921 H         1 <0>         0.3862
     32 H6         -0.0990   -3.0931    3.4388 H         1 <0>         0.1061
     33 H7         -2.0875   -0.8448    2.8836 H         1 <0>         0.0516
     34 H8         -2.1336   -2.4724    2.1645 H         1 <0>         0.0797
     35 H9         -3.6781   -2.3093    4.0976 H         1 <0>         0.0596
     36 H10        -2.3643   -3.4646    4.4253 H         1 <0>         0.0659
     37 H11        -2.4437   -0.5534    5.3393 H         1 <0>         0.0587
     38 H12        -2.7437   -1.9734    6.3698 H         1 <0>         0.0594
     39 H13        -0.4091   -1.1741    6.6136 H         1 <0>         0.0623
     40 H14        -0.4553   -2.8017    5.8945 H         1 <0>         0.0656
     41 H15         1.1353   -1.3372    4.6805 H         1 <0>         0.0647
     42 H16        -0.1785   -0.1819    4.3528 H         1 <0>         0.0611
     43 H17        -0.2944   -0.8279   -1.7172 H         1 <0>         0.1357
     44 H18        -1.3693   -0.3643   -3.8798 H         1 <0>         0.1342
     45 H19         0.8183   -3.5623   -5.6720 H         1 <0>         0.1351
     46 H20         1.9116   -4.0332   -3.5202 H         1 <0>         0.1412
@<TRIPOS>BOND
     1    1    6 ar
     2    1    2 ar
     3    1   27 1
     4    2    3 ar
     5    2   28 1
     6    3    4 ar
     7    3   26 1
     8    4    5 ar
     9    4   29 1
    10    5    6 ar
    11    5    7 1
    12    6   30 1
    13    7    8 2
    14    7   17 1
    15    8    9 1
    16    8   16 1
    17    9   10 1
    18    9   31 1
    19   10   15 1
    20   10   11 1
    21   10   32 1
    22   11   12 1
    23   11   33 1
    24   11   34 1
    25   12   13 1
    26   12   35 1
    27   12   36 1
    28   13   14 1
    29   13   37 1
    30   13   38 1
    31   14   15 1
    32   14   39 1
    33   14   40 1
    34   15   41 1
    35   15   42 1
    36   17   18 2
    37   17   19 1
    38   19   24 ar
    39   19   20 ar
    40   20   21 ar
    41   20   43 1
    42   21   22 ar
    43   21   44 1
    44   22   23 ar
    45   22   25 1
    46   23   24 ar
    47   23   45 1
    48   24   46 1
@<TRIPOS>MOLECULE
ZINC40017005
   34    36     0     0     0
SMALL
USER_CHARGES

@<TRIPOS>ATOM
      1 C1         -0.0184    1.5028    0.0103 C.3       1 <0>        -0.1389
      2 C2          0.0021   -0.0041    0.0020 C.2       1 <0>         0.1136
      3 C3          0.0061   -0.6913   -1.1499 C.2       1 <0>        -0.3472
      4 C4          0.0265   -2.1674   -1.0686 C.2       1 <0>         0.2833
      5 N1          0.0301   -2.8951   -2.1601 N.2       1 <0>        -0.5600
      6 C5          0.0156   -2.3368   -3.3603 C.2       1 <0>         0.4596
      7 N2         -0.0025   -1.0400   -3.5541 N.2       1 <0>        -0.6222
      8 C6         -0.0083   -0.1578   -2.5494 C.2       1 <0>         0.5627
      9 O1         -0.0256    1.0422   -2.7654 O.2       1 <0>        -0.4686
     10 C7          0.0209   -3.2390   -4.5674 C.3       1 <0>        -0.0683
     11 S1         -0.0013   -2.2313   -6.0756 S.3       1 <0>         0.1325
     12 C8          0.0072   -3.4159   -7.3800 C.2       1 <0>         0.0571
     13 N3          0.0194   -4.7099   -7.2847 N.2       1 <0>        -0.2565
     14 N4          0.0247   -5.5481   -8.3771 N.pl3     1 <0>        -0.6080
     15 C9          0.0153   -4.8698   -9.6929 C.3       1 <0>         0.1922
     16 H1          0.9155   -5.0982  -10.2634 H         1 <0>         0.1462
     17 S2         -0.0070   -3.1146   -9.1399 S.3       1 <0>        -0.1256
     18 S3         -1.4793   -5.2790  -10.6360 S.3       1 <0>        -0.2240
     19 C10        -2.8362   -4.6955   -9.5829 C.3       1 <0>        -0.1206
     20 S4          0.0403   -2.5232    0.6703 S.3       1 <0>         0.0667
     21 C11         0.0250   -0.7926    1.2917 C.3       1 <0>        -0.1484
     22 H2          0.9254   -0.5750    1.8662 H         1 <0>         0.1617
     23 C12        -1.2122   -0.5255    2.1096 C.2       1 <0>         0.5244
     24 O2         -2.1715   -1.2734    2.0260 O.co2     1 <0>        -0.6401
     25 O3         -1.2539    0.4385    2.8549 O.co2     1 <0>        -0.6477
     26 H3          1.0042    1.8801    0.0026 H         1 <0>         0.0982
     27 H4         -0.5455    1.8639   -0.8728 H         1 <0>         0.1003
     28 H5         -0.5286    1.8543    0.9071 H         1 <0>         0.1010
     29 H6          0.9194   -3.8560   -4.5560 H         1 <0>         0.1299
     30 H7         -0.8604   -3.8800   -4.5458 H         1 <0>         0.1300
     31 H8          0.0342   -6.5142   -8.2907 H         1 <0>         0.4391
     32 H9         -2.8007   -5.2133   -8.6244 H         1 <0>         0.0782
     33 H10        -2.7342   -3.6225   -9.4202 H         1 <0>         0.0926
     34 H11        -3.7889   -4.8999  -10.0713 H         1 <0>         0.1068
@<TRIPOS>BOND
     1    1    2 1
     2    1   26 1
     3    1   27 1
     4    1   28 1
     5    2   21 1
     6    2    3 2
     7    3    8 1
     8    3    4 1
     9    4    5 2
    10    4   20 1
    11    5    6 1
    12    6    7 2
    13    6   10 1
    14    7    8 1
    15    8    9 2
    16   10   11 1
    17   10   29 1
    18   10   30 1
    19   11   12 1
    20   12   17 1
    21   12   13 2
    22   13   14 1
    23   14   15 1
    24   14   31 1
    25   15   16 1
    26   15   17 1
    27   15   18 1
    28   18   19 1
    29   19   32 1
    30   19   33 1
    31   19   34 1
    32   20   21 1
    33   21   22 1
    34   21   23 1
    35   23   24 2
    36   23   25 1
@<TRIPOS>MOLECULE
ZINC02554436
   37    39     0     0     0
SMALL
USER_CHARGES
(3R)-1-[4-(2-thienyl)-6-(trifluoromethyl)pyrimidin-2-yl]piperidine-3-carboxylic acid
@<TRIPOS>ATOM
      1 C1          1.3350   -0.2708   -0.0121 C.2       1 <0>        -0.1651
      2 C2          2.2280    0.7754   -0.0151 C.2       1 <0>        -0.0914
      3 C3          1.7417    2.0572   -0.0035 C.2       1 <0>        -0.1366
      4 S1         -0.0221    1.7810    0.0118 S.3       1 <0>         0.0881
      5 C4          0.0021   -0.0041    0.0020 C.2       1 <0>        -0.1572
      6 C5          2.4830    3.3327   -0.0042 C.ar      1 <0>         0.2956
      7 C6          1.7974    4.5546    0.0090 C.ar      1 <0>        -0.2168
      8 C7          2.5349    5.7226    0.0078 C.ar      1 <0>         0.1277
      9 N1          3.8580    5.6545   -0.0057 N.ar      1 <0>        -0.5092
     10 C8          4.4820    4.4855   -0.0179 C.ar      1 <0>         0.5238
     11 N2          3.8166    3.3414   -0.0117 N.ar      1 <0>        -0.5026
     12 N3          5.8659    4.4603   -0.0322 N.pl3     1 <0>        -0.4521
     13 C9          6.3664    3.6909   -1.1785 C.3       1 <0>         0.0678
     14 C10         7.8882    3.5614   -1.0823 C.3       1 <0>        -0.1176
     15 C11         8.5146    4.9585   -1.0689 C.3       1 <0>        -0.1021
     16 C12         7.9405    5.7555    0.1058 C.3       1 <0>        -0.1272
     17 H1          8.2051    5.2648    1.0424 H         1 <0>         0.0785
     18 C13         6.4171    5.8214   -0.0249 C.3       1 <0>         0.0919
     19 C14         8.5075    7.1517    0.0915 C.2       1 <0>         0.4684
     20 O1          9.2905    7.4770   -0.7693 O.co2     1 <0>        -0.6362
     21 C15         1.8417    7.0606    0.0211 C.3       1 <0>         0.5246
     22 F1          1.6398    7.4680    1.3442 F         1 <0>        -0.1636
     23 F2          2.6350    8.0034   -0.6413 F         1 <0>        -0.1536
     24 F3          0.6066    6.9524   -0.6271 F         1 <0>        -0.1687
     25 H2          1.6883   -1.2913   -0.0206 H         1 <0>         0.1414
     26 H3          3.2920    0.5906   -0.0258 H         1 <0>         0.1475
     27 H4         -0.8285   -0.6944    0.0062 H         1 <0>         0.1922
     28 H5          0.7178    4.5826    0.0202 H         1 <0>         0.1569
     29 H6          5.9164    2.6981   -1.1738 H         1 <0>         0.0894
     30 H7          6.1035    4.2044   -2.1033 H         1 <0>         0.0463
     31 H8          8.1514    3.0358   -0.1643 H         1 <0>         0.0716
     32 H9          8.2611    3.0037   -1.9413 H         1 <0>         0.0718
     33 H10         9.5954    4.8721   -0.9568 H         1 <0>         0.0680
     34 H11         8.2841    5.4700   -2.0034 H         1 <0>         0.0625
     35 H12         6.1538    6.3248   -0.9551 H         1 <0>         0.0525
     36 H13         6.0040    6.3760    0.8176 H         1 <0>         0.0977
     37 O2          8.1427    8.0339    1.0351 O.co2     1 <0>        -0.7641
@<TRIPOS>BOND
     1    1    5 2
     2    1    2 1
     3    1   25 1
     4    2    3 2
     5    2   26 1
     6    3    4 1
     7    3    6 1
     8    4    5 1
     9    5   27 1
    10    6   11 ar
    11    6    7 ar
    12    7    8 ar
    13    7   28 1
    14    8    9 ar
    15    8   21 1
    16    9   10 ar
    17   10   11 ar
    18   10   12 1
    19   12   18 1
    20   12   13 1
    21   13   14 1
    22   13   29 1
    23   13   30 1
    24   14   15 1
    25   14   31 1
    26   14   32 1
    27   15   16 1
    28   15   33 1
    29   15   34 1
    30   16   17 1
    31   16   18 1
    32   16   19 1
    33   18   35 1
    34   18   36 1
    35   19   20 2
    36   19   37 1
    37   21   22 1
    38   21   23 1
    39   21   24 1
@<TRIPOS>MOLECULE
ZINC38106866
   27    29     0     0     0
SMALL
USER_CHARGES

@<TRIPOS>ATOM
      1 C1         -0.0221    1.3680    0.0391 C.ar      1 <0>         0.0332
      2 C2          1.1786    2.0604    0.0273 C.ar      1 <0>        -0.1797
      3 C3          2.3652    1.3509   -0.0258 C.ar      1 <0>         0.2062
      4 N1          2.3610    0.0317   -0.0654 N.ar      1 <0>        -0.4948
      5 C4          1.2373   -0.6584   -0.0556 C.ar      1 <0>         0.2126
      6 C5          0.0141   -0.0175   -0.0031 C.ar      1 <0>        -0.6837
      7 S1         -1.4811   -0.9495    0.0095 S.o2      1 <0>         2.6444
      8 O1         -1.1530   -2.2369    0.5136 O.2       1 <0>        -1.0043
      9 O2         -2.4689   -0.1245    0.6119 O.2       1 <0>        -0.9973
     10 N2         -1.9393   -1.1614   -1.5677 N.2       1 <0>        -1.0660
     11 C6         -3.0496   -1.9532   -1.8724 C.ar      1 <0>         0.3558
     12 C7         -3.3416   -2.2428   -3.1872 C.ar      1 <0>        -0.1088
     13 C8         -4.4352   -3.0250   -3.5301 C.ar      1 <0>        -0.0266
     14 C9         -5.2504   -3.5259   -2.5324 C.ar      1 <0>        -0.1774
     15 C10        -4.9688   -3.2440   -1.2168 C.ar      1 <0>        -0.0538
     16 C11        -3.8635   -2.4570   -0.8240 C.ar      1 <0>        -0.0746
     17 N3         -3.7189   -2.2761    0.5061 N.2       1 <0>        -0.4589
     18 C12        -4.5369   -2.7931    1.3819 C.2       1 <0>         0.1055
     19 S2         -5.7097   -3.6556    0.3448 S.3       1 <0>        -0.0872
     20 Cl1        -2.3195   -1.6151   -4.4422 Cl        1 <0>        -0.0761
     21 Cl2         3.8762    2.2054   -0.0411 Cl        1 <0>        -0.0346
     22 H1         -0.9636    1.8952    0.0846 H         1 <0>         0.1585
     23 H2          1.1878    3.1399    0.0589 H         1 <0>         0.1503
     24 H3          1.2734   -1.7373   -0.0894 H         1 <0>         0.1793
     25 H4         -4.6477   -3.2402   -4.5669 H         1 <0>         0.1333
     26 H5         -6.1051   -4.1357   -2.7855 H         1 <0>         0.1248
     27 H6         -4.5154   -2.7132    2.4587 H         1 <0>         0.2197
@<TRIPOS>BOND
     1    1    6 ar
     2    1    2 ar
     3    1   22 1
     4    2    3 ar
     5    2   23 1
     6    3    4 ar
     7    3   21 1
     8    4    5 ar
     9    5    6 ar
    10    5   24 1
    11    6    7 1
    12    7    8 2
    13    7    9 2
    14    7   10 1
    15   10   11 1
    16   11   16 ar
    17   11   12 ar
    18   12   13 ar
    19   12   20 1
    20   13   14 ar
    21   13   25 1
    22   14   15 ar
    23   14   26 1
    24   15   19 1
    25   15   16 ar
    26   16   17 1
    27   17   18 2
    28   18   19 1
    29   18   27 1
@<TRIPOS>MOLECULE
ZINC57689761
   37    40     0     0     0
SMALL
USER_CHARGES

@<TRIPOS>ATOM
      1 C1         -0.0184    1.5028    0.0103 C.3       1 <0>        -0.1178
      2 C2          0.0021   -0.0041    0.0020 C.ar      1 <0>        -0.0464
      3 C3          0.0057   -0.6887   -1.1989 C.ar      1 <0>        -0.1465
      4 C4          0.0245   -2.0709   -1.2065 C.ar      1 <0>        -0.0163
      5 C5          0.0400   -2.7685   -0.0132 C.ar      1 <0>        -0.6266
      6 C6          0.0373   -2.0839    1.1877 C.ar      1 <0>        -0.0164
      7 C7          0.0229   -0.7016    1.1953 C.ar      1 <0>        -0.1465
      8 S1          0.0628   -4.5303   -0.0229 S.o2      1 <0>         2.6213
      9 O1         -0.4759   -4.9503    1.2232 O.2       1 <0>        -1.0041
     10 O2         -0.4897   -4.9367   -1.2674 O.2       1 <0>        -1.0041
     11 N1          1.6509   -4.9994   -0.0343 N.2       1 <0>        -1.0034
     12 C8          1.9753   -6.3463   -0.0434 C.2       1 <0>         0.4984
     13 N2          3.1672   -6.9186   -0.0477 N.2       1 <0>        -0.5791
     14 C9          3.3124   -8.2439   -0.0565 C.2       1 <0>         0.1714
     15 C10         2.1581   -9.0005   -0.0592 C.2       1 <0>        -0.3328
     16 S2          0.8908   -7.7714   -0.0445 S.3       1 <0>        -0.1609
     17 C11         2.1177  -10.4863   -0.0651 C.3       1 <0>         0.1874
     18 O3          3.3260  -10.9813   -0.6567 O.3       1 <0>        -0.3175
     19 C12         4.5103  -10.3883   -0.3629 C.ar      1 <0>         0.1410
     20 C13         4.5921   -9.0205   -0.0667 C.ar      1 <0>        -0.0724
     21 C14         5.8076   -8.4199    0.2075 C.ar      1 <0>        -0.0569
     22 C15         6.9607   -9.1854    0.2009 C.ar      1 <0>        -0.1549
     23 C16         6.8884  -10.5384   -0.0770 C.ar      1 <0>        -0.0930
     24 C17         5.6762  -11.1403   -0.3572 C.ar      1 <0>        -0.1533
     25 H1          1.0042    1.8801    0.0026 H         1 <0>         0.0747
     26 H2         -0.5455    1.8639   -0.8728 H         1 <0>         0.0684
     27 H3         -0.5286    1.8543    0.9071 H         1 <0>         0.0684
     28 H4         -0.0064   -0.1436   -2.1312 H         1 <0>         0.1283
     29 H5          0.0266   -2.6057   -2.1448 H         1 <0>         0.1387
     30 H6          0.0491   -2.6289    2.1200 H         1 <0>         0.1387
     31 H7          0.0245   -0.1667    2.1335 H         1 <0>         0.1283
     32 H8          2.0351  -10.8533    0.9579 H         1 <0>         0.0653
     33 H9          1.2607  -10.8258   -0.6469 H         1 <0>         0.1060
     34 H10         5.8564   -7.3630    0.4244 H         1 <0>         0.1358
     35 H11         7.9155   -8.7269    0.4121 H         1 <0>         0.1236
     36 H12         7.7906  -11.1321   -0.0752 H         1 <0>         0.1240
     37 H13         5.6365  -12.1979   -0.5723 H         1 <0>         0.1292
@<TRIPOS>BOND
     1    1    2 1
     2    1   25 1
     3    1   26 1
     4    1   27 1
     5    2    7 ar
     6    2    3 ar
     7    3    4 ar
     8    3   28 1
     9    4    5 ar
    10    4   29 1
    11    5    6 ar
    12    5    8 1
    13    6    7 ar
    14    6   30 1
    15    7   31 1
    16    8    9 2
    17    8   10 2
    18    8   11 1
    19   11   12 1
    20   12   16 1
    21   12   13 2
    22   13   14 1
    23   14   20 1
    24   14   15 2
    25   15   16 1
    26   15   17 1
    27   17   18 1
    28   17   32 1
    29   17   33 1
    30   18   19 1
    31   19   24 ar
    32   19   20 ar
    33   20   21 ar
    34   21   22 ar
    35   21   34 1
    36   22   23 ar
    37   22   35 1
    38   23   24 ar
    39   23   36 1
    40   24   37 1
@<TRIPOS>MOLECULE
ZINC64845002
   41    43     0     0     0
SMALL
USER_CHARGES

@<TRIPOS>ATOM
      1 C1         -0.0187    1.5258    0.0104 C.3       1 <0>        -0.1447
      2 C2          0.0021   -0.0041    0.0020 C.3       1 <0>        -0.0628
      3 C3         -1.4117   -0.5257    0.0127 C.ar      1 <0>        -0.1972
      4 C4         -2.0494   -0.7656    1.2161 C.ar      1 <0>        -0.0746
      5 C5         -3.3451   -1.2436    1.2295 C.ar      1 <0>        -0.1810
      6 C6         -4.0076   -1.4834    0.0324 C.ar      1 <0>         0.2808
      7 C7         -3.3641   -1.2414   -1.1746 C.ar      1 <0>        -0.2635
      8 C8         -2.0704   -0.7580   -1.1808 C.ar      1 <0>        -0.0614
      9 N1         -5.3178   -1.9673    0.0423 N.2       1 <0>        -1.0806
     10 S1         -6.1060   -2.2526   -1.3859 S.o2      1 <0>         2.6105
     11 O1         -6.2854   -0.9888   -2.0103 O.2       1 <0>        -1.0157
     12 O2         -5.4225   -3.3253   -2.0197 O.2       1 <0>        -1.0289
     13 C9         -7.7146   -2.8483   -0.9833 C.2       1 <0>        -0.6346
     14 C10        -7.9663   -4.1661   -0.8192 C.2       1 <0>        -0.0478
     15 S2         -9.7062   -4.1781   -0.4360 S.3       1 <0>         0.1779
     16 C11       -10.0120   -2.5279   -0.5050 C.2       1 <0>        -0.2032
     17 C12        -8.7983   -1.9841   -0.8105 C.2       1 <0>        -0.0194
     18 C13        -8.6363   -0.5239   -0.9594 C.2       1 <0>         0.1535
     19 C14        -9.2183    0.2563   -1.9126 C.2       1 <0>        -0.2793
     20 C15        -8.8061    1.5785   -1.7005 C.2       1 <0>         0.0743
     21 N2         -8.0109    1.5991   -0.6664 N.2       1 <0>        -0.3178
     22 O3         -7.8916    0.2769   -0.1741 O.3       1 <0>        -0.0440
     23 C16       -11.3196   -1.8144   -0.2771 C.3       1 <0>        -0.0661
     24 C17        -7.0162   -5.3303   -0.9326 C.3       1 <0>        -0.1116
     25 H1          1.0039    1.9031    0.0027 H         1 <0>         0.0434
     26 H2         -0.5459    1.8868   -0.8726 H         1 <0>         0.0513
     27 H3         -0.5289    1.8773    0.9072 H         1 <0>         0.0521
     28 H4          0.5123   -0.3556   -0.8948 H         1 <0>         0.0551
     29 H5          0.5293   -0.3651    0.8851 H         1 <0>         0.0563
     30 H6         -1.5336   -0.5792    2.1464 H         1 <0>         0.1020
     31 H7         -3.8424   -1.4310    2.1696 H         1 <0>         0.1099
     32 H8         -3.8762   -1.4272   -2.1072 H         1 <0>         0.0930
     33 H9         -1.5710   -0.5655   -2.1188 H         1 <0>         0.0981
     34 H10        -9.8806   -0.0845   -2.6946 H         1 <0>         0.1499
     35 H11        -9.0966    2.4342   -2.2921 H         1 <0>         0.1926
     36 H12       -12.0961   -2.5438   -0.0462 H         1 <0>         0.0742
     37 H13       -11.2141   -1.1199    0.5563 H         1 <0>         0.0793
     38 H14       -11.5945   -1.2635   -1.1766 H         1 <0>         0.0813
     39 H15        -6.5667   -5.5285    0.0404 H         1 <0>         0.0920
     40 H16        -7.5612   -6.2128   -1.2676 H         1 <0>         0.0770
     41 H17        -6.2334   -5.0917   -1.6526 H         1 <0>         0.1299
@<TRIPOS>BOND
     1    1    2 1
     2    1   25 1
     3    1   26 1
     4    1   27 1
     5    2    3 1
     6    2   28 1
     7    2   29 1
     8    3    8 ar
     9    3    4 ar
    10    4    5 ar
    11    4   30 1
    12    5    6 ar
    13    5   31 1
    14    6    7 ar
    15    6    9 1
    16    7    8 ar
    17    7   32 1
    18    8   33 1
    19    9   10 1
    20   10   11 2
    21   10   12 2
    22   10   13 1
    23   13   17 1
    24   13   14 2
    25   14   15 1
    26   14   24 1
    27   15   16 1
    28   16   17 2
    29   16   23 1
    30   17   18 1
    31   18   22 1
    32   18   19 2
    33   19   20 1
    34   19   34 1
    35   20   21 2
    36   20   35 1
    37   21   22 1
    38   23   36 1
    39   23   37 1
    40   23   38 1
    41   24   39 1
    42   24   40 1
    43   24   41 1
@<TRIPOS>MOLECULE
ZINC65242293
   44    46     0     0     0
SMALL
USER_CHARGES

@<TRIPOS>ATOM
      1 C1         -0.0184    1.5028    0.0103 C.3       1 <0>        -0.0881
      2 C2          0.0021   -0.0041    0.0020 C.ar      1 <0>        -0.2342
      3 C3          0.0058   -0.6875   -1.2000 C.ar      1 <0>        -0.0529
      4 C4          0.0249   -2.0683   -1.2114 C.ar      1 <0>        -0.1876
      5 C5          0.0405   -2.7723   -0.0136 C.ar      1 <0>         0.3019
      6 C6          0.0368   -2.0850    1.1928 C.ar      1 <0>        -0.3010
      7 C7          0.0229   -0.7016    1.1983 C.ar      1 <0>         0.1472
      8 F1          0.0244   -0.0310    2.3711 F         1 <0>        -0.1551
      9 N1          0.0595   -4.1689   -0.0231 N.2       1 <0>        -1.0838
     10 S1          0.0781   -5.0064    1.4053 S.o2      1 <0>         2.6293
     11 O1          1.3228   -4.7198    2.0280 O.2       1 <0>        -1.0351
     12 O2         -1.1677   -4.7537    2.0406 O.2       1 <0>        -1.0276
     13 C8          0.0993   -6.7218    1.0032 C.2       1 <0>        -0.6791
     14 C9          1.0871   -7.5922    1.2645 C.2       1 <0>         0.1755
     15 N2          0.7472   -8.8359    0.8037 N.pl3     1 <0>        -0.4654
     16 C10        -0.4966   -8.7978    0.2204 C.ar      1 <0>         0.2792
     17 C11        -0.9596   -7.4720    0.3257 C.ar      1 <0>        -0.0770
     18 C12        -2.2162   -7.1406   -0.1855 C.ar      1 <0>        -0.0210
     19 C13        -2.9620   -8.1429   -0.7772 C.ar      1 <0>        -0.1989
     20 C14        -2.4451   -9.4275   -0.8431 C.ar      1 <0>         0.1252
     21 N3         -1.2548   -9.7171   -0.3618 N.ar      1 <0>        -0.4975
     22 C15         1.5863  -10.0315    0.9155 C.3       1 <0>         0.1123
     23 C16         2.3938  -10.2101   -0.3717 C.3       1 <0>        -0.1132
     24 C17         3.3709   -9.0429   -0.5269 C.3       1 <0>        -0.1552
     25 C18         3.1752  -11.5239   -0.3055 C.3       1 <0>        -0.1418
     26 H1          1.0042    1.8801    0.0026 H         1 <0>         0.0521
     27 H2         -0.5455    1.8639   -0.8728 H         1 <0>         0.0558
     28 H3         -0.5286    1.8543    0.9071 H         1 <0>         0.0530
     29 H4         -0.0067   -0.1407   -2.1312 H         1 <0>         0.1141
     30 H5          0.0274   -2.6007   -2.1511 H         1 <0>         0.1177
     31 H6          0.0489   -2.6294    2.1254 H         1 <0>         0.1078
     32 H7          2.0131   -7.3477    1.7637 H         1 <0>         0.1889
     33 H8         -2.5944   -6.1311   -0.1201 H         1 <0>         0.1439
     34 H9         -3.9388   -7.9272   -1.1843 H         1 <0>         0.1377
     35 H10        -3.0306  -10.2080   -1.3061 H         1 <0>         0.1582
     36 H11         2.2674   -9.9198    1.7591 H         1 <0>         0.0915
     37 H12         0.9543  -10.9056    1.0721 H         1 <0>         0.0918
     38 H13         1.7165  -10.2328   -1.2254 H         1 <0>         0.0790
     39 H14         3.9462   -9.1701   -1.4439 H         1 <0>         0.0594
     40 H15         2.8143   -8.1069   -0.5740 H         1 <0>         0.0612
     41 H16         4.0482   -9.0202    0.3268 H         1 <0>         0.0575
     42 H17         2.4791  -12.3554   -0.1950 H         1 <0>         0.0570
     43 H18         3.7505  -11.6511   -1.2225 H         1 <0>         0.0604
     44 H19         3.8525  -11.5011    0.5482 H         1 <0>         0.0570
@<TRIPOS>BOND
     1    1    2 1
     2    1   26 1
     3    1   27 1
     4    1   28 1
     5    2    7 ar
     6    2    3 ar
     7    3    4 ar
     8    3   29 1
     9    4    5 ar
    10    4   30 1
    11    5    6 ar
    12    5    9 1
    13    6    7 ar
    14    6   31 1
    15    7    8 1
    16    9   10 1
    17   10   11 2
    18   10   12 2
    19   10   13 1
    20   13   17 1
    21   13   14 2
    22   14   15 1
    23   14   32 1
    24   15   16 1
    25   15   22 1
    26   16   21 ar
    27   16   17 ar
    28   17   18 ar
    29   18   19 ar
    30   18   33 1
    31   19   20 ar
    32   19   34 1
    33   20   21 ar
    34   20   35 1
    35   22   23 1
    36   22   36 1
    37   22   37 1
    38   23   24 1
    39   23   25 1
    40   23   38 1
    41   24   39 1
    42   24   40 1
    43   24   41 1
    44   25   42 1
    45   25   43 1
    46   25   44 1
@<TRIPOS>MOLECULE
ZINC13264682
   48    50     0     0     0
SMALL
USER_CHARGES
1-[4-[(E)-3-(5-bromo-2-fluoro-phenyl)prop-2-enoyl]phenyl]sulfonylpiperidine-4-carboxylic acid
@<TRIPOS>ATOM
      1 C1         -2.4887   -0.0827    0.0312 C.ar      1 <0>        -0.0963
      2 C2         -3.6703   -0.7946    0.0338 C.ar      1 <0>        -0.0313
      3 C3         -3.6479   -2.1782    0.0257 C.ar      1 <0>        -0.6476
      4 C4         -2.4421   -2.8568    0.0105 C.ar      1 <0>        -0.0293
      5 C5         -1.2534   -2.1570    0.0024 C.ar      1 <0>        -0.0833
      6 C6         -1.2688   -0.7610    0.0101 C.ar      1 <0>        -0.1117
      7 C7          0.0021   -0.0041    0.0020 C.2       1 <0>         0.4225
      8 O1          1.0645   -0.5984   -0.0113 O.2       1 <0>        -0.4440
      9 C8         -0.0177    1.4569    0.0101 C.2       1 <0>        -0.2203
     10 C9          1.1436    2.1487    0.0027 C.2       1 <0>        -0.0175
     11 C10         1.1237    3.6182    0.0108 C.ar      1 <0>        -0.1038
     12 C11        -0.0955    4.3056    0.0202 C.ar      1 <0>        -0.0441
     13 C12        -0.1055    5.6841    0.0331 C.ar      1 <0>        -0.1062
     14 C13         1.0867    6.3907    0.0250 C.ar      1 <0>        -0.0485
     15 C14         2.2964    5.7213    0.0104 C.ar      1 <0>        -0.1482
     16 C15         2.3253    4.3394    0.0032 C.ar      1 <0>         0.1396
     17 F1          3.5079    3.6863   -0.0116 F         1 <0>        -0.1231
     18 Br1        -1.7519    6.6142    0.0538 Br        1 <0>        -0.0300
     19 S1         -5.1617   -3.0799    0.0353 S.o2      1 <0>         2.6849
     20 O2         -6.1531   -2.2148   -0.5014 O.2       1 <0>        -0.9519
     21 O3         -4.8787   -4.3546   -0.5251 O.2       1 <0>        -0.9521
     22 N1         -5.5672   -3.3389    1.6199 N.pl3     1 <0>        -0.9897
     23 C16        -5.1087   -4.5452    2.3223 C.3       1 <0>         0.1182
     24 C17        -6.3160   -5.2542    2.9334 C.3       1 <0>        -0.1082
     25 C18        -7.0911   -4.2705    3.8131 C.3       1 <0>        -0.1269
     26 C19        -7.5948   -3.1060    2.9574 C.3       1 <0>        -0.1072
     27 C20        -6.3974   -2.3699    2.3482 C.3       1 <0>         0.1166
     28 C21        -8.2650   -4.9764    4.4414 C.2       1 <0>         0.4644
     29 O4         -9.3889   -4.5880    4.2269 O.co2     1 <0>        -0.6394
     30 H1         -2.5075    0.9971    0.0413 H         1 <0>         0.1403
     31 H2         -4.6148   -0.2710    0.0460 H         1 <0>         0.1484
     32 H3         -2.4316   -3.9367    0.0046 H         1 <0>         0.1484
     33 H4         -0.3129   -2.6878   -0.0101 H         1 <0>         0.1440
     34 H5         -0.9603    1.9842    0.0174 H         1 <0>         0.1391
     35 H6          2.0861    1.6215   -0.0092 H         1 <0>         0.1443
     36 H7         -1.0260    3.7573    0.0217 H         1 <0>         0.1496
     37 H8          1.0708    7.4706    0.0306 H         1 <0>         0.1479
     38 H9          3.2210    6.2795    0.0042 H         1 <0>         0.1514
     39 H10        -4.6131   -5.2125    1.6173 H         1 <0>         0.0890
     40 H11        -4.4137   -4.2651    3.1139 H         1 <0>         0.0688
     41 H12        -5.9776   -6.0950    3.5389 H         1 <0>         0.0841
     42 H13        -6.9638   -5.6173    2.1356 H         1 <0>         0.0617
     43 H14        -6.4356   -3.8890    4.5959 H         1 <0>         0.0699
     44 H15        -8.1666   -2.4178    3.5799 H         1 <0>         0.0759
     45 H16        -8.2310   -3.4888    2.1593 H         1 <0>         0.0679
     46 H17        -5.8096   -1.9088    3.1419 H         1 <0>         0.0670
     47 H18        -6.7518   -1.6023    1.6601 H         1 <0>         0.0883
     48 O5         -8.0621   -6.0365    5.2393 O.co2     1 <0>        -0.7715
@<TRIPOS>BOND
     1    1    6 ar
     2    1    2 ar
     3    1   30 1
     4    2    3 ar
     5    2   31 1
     6    3    4 ar
     7    3   19 1
     8    4    5 ar
     9    4   32 1
    10    5    6 ar
    11    5   33 1
    12    6    7 1
    13    7    8 2
    14    7    9 1
    15    9   10 2
    16    9   34 1
    17   10   11 1
    18   10   35 1
    19   11   16 ar
    20   11   12 ar
    21   12   13 ar
    22   12   36 1
    23   13   14 ar
    24   13   18 1
    25   14   15 ar
    26   14   37 1
    27   15   16 ar
    28   15   38 1
    29   16   17 1
    30   19   20 2
    31   19   21 2
    32   19   22 1
    33   22   27 1
    34   22   23 1
    35   23   24 1
    36   23   39 1
    37   23   40 1
    38   24   25 1
    39   24   41 1
    40   24   42 1
    41   25   26 1
    42   25   28 1
    43   25   43 1
    44   26   27 1
    45   26   44 1
    46   26   45 1
    47   27   46 1
    48   27   47 1
    49   28   29 2
    50   28   48 1
@<TRIPOS>MOLECULE
ZINC32906728
   43    45     0     0     0
SMALL
USER_CHARGES
N-[2-(2-chlorophenoxy)phenyl]-4-methylsulfonyl-benzenesulfonamide
@<TRIPOS>ATOM
      1 C1         -0.1277   -4.2333   -7.7567 C.3       1 <0>        -0.6542
      2 S1         -0.4311   -2.6892   -6.8543 S.o2      1 <0>         2.4990
      3 O1         -1.8031   -2.3304   -6.9456 O.2       1 <0>        -0.9381
      4 O2          0.5865   -1.7421   -7.1488 O.2       1 <0>        -0.9382
      5 C2         -0.1858   -3.1001   -5.1586 C.ar      1 <0>        -0.6316
      6 C3          1.0690   -2.9760   -4.5919 C.ar      1 <0>        -0.0502
      7 C4          1.2613   -3.2975   -3.2613 C.ar      1 <0>        -0.0455
      8 C5          0.1987   -3.7426   -2.4972 C.ar      1 <0>        -0.6015
      9 C6         -1.0549   -3.8717   -3.0652 C.ar      1 <0>        -0.0492
     10 C7         -1.2481   -3.5461   -4.3947 C.ar      1 <0>        -0.0503
     11 S2          0.4438   -4.1524   -0.8011 S.o2      1 <0>         2.5808
     12 O3          1.8211   -4.4705   -0.6551 O.2       1 <0>        -0.9866
     13 O4         -0.5896   -5.0621   -0.4496 O.2       1 <0>        -1.0315
     14 N1          0.1805   -2.7742    0.0785 N.2       1 <0>        -1.0371
     15 C8         -1.0677   -2.1431    0.0334 C.ar      1 <0>         0.2343
     16 C9         -2.2263   -2.8995   -0.0656 C.ar      1 <0>        -0.2357
     17 C10        -3.4580   -2.2739   -0.1095 C.ar      1 <0>        -0.0799
     18 C11        -3.5391   -0.8947   -0.0546 C.ar      1 <0>        -0.1873
     19 C12        -2.3890   -0.1343    0.0494 C.ar      1 <0>        -0.0954
     20 C13        -1.1502   -0.7532    0.0882 C.ar      1 <0>         0.0165
     21 O5         -0.0178   -0.0065    0.1852 O.3       1 <0>        -0.2239
     22 C14         0.4953    0.2164    1.4237 C.ar      1 <0>         0.1691
     23 C15        -0.1672   -0.2586    2.5463 C.ar      1 <0>        -0.1758
     24 C16         0.3592   -0.0354    3.8039 C.ar      1 <0>        -0.0804
     25 C17         1.5401    0.6700    3.9457 C.ar      1 <0>        -0.1612
     26 C18         2.2000    1.1498    2.8296 C.ar      1 <0>        -0.0803
     27 C19         1.6806    0.9249    1.5683 C.ar      1 <0>        -0.0738
     28 Cl1         2.5097    1.5269    0.1670 Cl        1 <0>        -0.0685
     29 H1          0.9365   -4.5004   -7.6788 H         1 <0>         0.1333
     30 H2         -0.3953   -4.0981   -8.8150 H         1 <0>         0.1324
     31 H3         -0.7403   -5.0376   -7.3234 H         1 <0>         0.1330
     32 H4          1.8989   -2.6276   -5.1886 H         1 <0>         0.1424
     33 H5          2.2416   -3.2006   -2.8185 H         1 <0>         0.1437
     34 H6         -1.8841   -4.2236   -2.4694 H         1 <0>         0.1430
     35 H7         -2.2285   -3.6427   -4.8374 H         1 <0>         0.1422
     36 H8         -2.1660   -3.9770   -0.1079 H         1 <0>         0.1529
     37 H9         -4.3594   -2.8638   -0.1866 H         1 <0>         0.1111
     38 H10        -4.5038   -0.4102   -0.0889 H         1 <0>         0.1124
     39 H11        -2.4562    0.9426    0.0966 H         1 <0>         0.1154
     40 H12        -1.0917   -0.8061    2.4369 H         1 <0>         0.1348
     41 H13        -0.1543   -0.4087    4.6776 H         1 <0>         0.1237
     42 H14         1.9474    0.8467    4.9302 H         1 <0>         0.1249
     43 H15         3.1218    1.7011    2.9432 H         1 <0>         0.1315
@<TRIPOS>BOND
     1    1    2 1
     2    1   29 1
     3    1   30 1
     4    1   31 1
     5    2    3 2
     6    2    4 2
     7    2    5 1
     8    5   10 ar
     9    5    6 ar
    10    6    7 ar
    11    6   32 1
    12    7    8 ar
    13    7   33 1
    14    8    9 ar
    15    8   11 1
    16    9   10 ar
    17    9   34 1
    18   10   35 1
    19   11   12 2
    20   11   13 2
    21   11   14 1
    22   14   15 1
    23   15   20 ar
    24   15   16 ar
    25   16   17 ar
    26   16   36 1
    27   17   18 ar
    28   17   37 1
    29   18   19 ar
    30   18   38 1
    31   19   20 ar
    32   19   39 1
    33   20   21 1
    34   21   22 1
    35   22   27 ar
    36   22   23 ar
    37   23   24 ar
    38   23   40 1
    39   24   25 ar
    40   24   41 1
    41   25   26 ar
    42   25   42 1
    43   26   27 ar
    44   26   43 1
    45   27   28 1
@<TRIPOS>MOLECULE
ZINC38897507
   57    60     0     0     0
SMALL
USER_CHARGES

@<TRIPOS>ATOM
      1 C1         -0.0078    1.5153   -0.0091 C.3       1 <0>        -0.1108
      2 C2          0.0089    0.0084    0.0010 C.2       1 <0>         0.2058
      3 C3         -1.1664   -0.6858    0.0190 C.2       1 <0>        -0.2496
      4 C4         -1.1259   -2.0910    0.0277 C.2       1 <0>         0.5422
      5 O1         -2.1574   -2.7426    0.0434 O.2       1 <0>        -0.5304
      6 N1          0.0761   -2.7059    0.0180 N.am      1 <0>        -0.6140
      7 H1          0.1275   -3.6745    0.0234 H         1 <0>         0.4213
      8 C5          1.2162   -1.9611    0.0001 C.2       1 <0>         0.3720
      9 N2          1.1690   -0.6428   -0.0131 N.2       1 <0>        -0.5402
     10 S1          2.7804   -2.7720   -0.0119 S.3       1 <0>        -0.0018
     11 C6          3.9799   -1.4114   -0.0347 C.3       1 <0>        -0.0508
     12 C7          5.3778   -1.9742   -0.0465 C.ar      1 <0>        -0.0901
     13 C8          6.0303   -2.2294    1.1451 C.ar      1 <0>        -0.0963
     14 C9          7.3125   -2.7457    1.1343 C.ar      1 <0>        -0.1199
     15 C10         7.9422   -3.0072   -0.0682 C.ar      1 <0>        -0.1063
     16 C11         7.2894   -2.7528   -1.2599 C.ar      1 <0>        -0.1196
     17 C12         6.0055   -2.2406   -1.2490 C.ar      1 <0>        -0.0962
     18 C13        -2.4858    0.0424    0.0298 C.3       1 <0>        -0.0707
     19 C14        -3.0018    0.1679   -1.3805 C.2       1 <0>         0.5234
     20 O2         -2.3613   -0.2890   -2.3035 O.2       1 <0>        -0.5309
     21 N3         -4.1751    0.7878   -1.6160 N.am      1 <0>        -0.6138
     22 C15        -4.9589    1.3515   -0.5080 C.3       1 <0>         0.0897
     23 C16        -5.2228    2.8341   -0.7989 C.3       1 <0>         0.1064
     24 N4         -5.7411    2.9589   -2.1684 N.pl3     1 <0>        -0.6303
     25 C17        -4.9573    2.3952   -3.2765 C.3       1 <0>         0.1092
     26 C18        -4.6907    0.9176   -2.9861 C.3       1 <0>         0.0965
     27 C19        -6.9571    3.6014   -2.4126 C.ar      1 <0>         0.2179
     28 C20        -7.7445    4.0280   -1.3507 C.ar      1 <0>        -0.2001
     29 C21        -8.9460    4.6633   -1.5956 C.ar      1 <0>        -0.0710
     30 C22        -9.3657    4.8746   -2.8961 C.ar      1 <0>        -0.1790
     31 C23        -8.5843    4.4512   -3.9556 C.ar      1 <0>        -0.0707
     32 C24        -7.3790    3.8203   -3.7178 C.ar      1 <0>        -0.1994
     33 H2          1.0156    1.8899   -0.0281 H         1 <0>         0.0843
     34 H3         -0.5399    1.8668   -0.8931 H         1 <0>         0.0840
     35 H4         -0.5113    1.8791    0.8866 H         1 <0>         0.0875
     36 H5          3.8248   -0.8052   -0.9272 H         1 <0>         0.1115
     37 H6          3.8447   -0.7930    0.8526 H         1 <0>         0.1116
     38 H7          5.5383   -2.0252    2.0846 H         1 <0>         0.1271
     39 H8          7.8225   -2.9445    2.0653 H         1 <0>         0.1272
     40 H9          8.9443   -3.4099   -0.0767 H         1 <0>         0.1259
     41 H10         7.7815   -2.9568   -2.1994 H         1 <0>         0.1273
     42 H11         5.4941   -2.0453   -2.1800 H         1 <0>         0.1273
     43 H12        -3.2037   -0.5154    0.6311 H         1 <0>         0.1086
     44 H13        -2.3489    1.0360    0.4564 H         1 <0>         0.1059
     45 H14        -5.9073    0.8208   -0.4236 H         1 <0>         0.0773
     46 H15        -4.3990    1.2553    0.4222 H         1 <0>         0.0964
     47 H16        -5.9581    3.2202   -0.0929 H         1 <0>         0.0976
     48 H17        -4.2934    3.3960   -0.7068 H         1 <0>         0.0684
     49 H18        -5.5172    2.4915   -4.2067 H         1 <0>         0.0961
     50 H19        -4.0090    2.9259   -3.3608 H         1 <0>         0.0668
     51 H20        -3.9537    0.5348   -3.6921 H         1 <0>         0.1024
     52 H21        -5.6195    0.3553   -3.0823 H         1 <0>         0.0716
     53 H22        -7.4176    3.8626   -0.3347 H         1 <0>         0.1219
     54 H23        -9.5587    4.9952   -0.7704 H         1 <0>         0.1207
     55 H24       -10.3060    5.3711   -3.0849 H         1 <0>         0.1180
     56 H25        -8.9150    4.6178   -4.9701 H         1 <0>         0.1206
     57 H26        -6.7670    3.4939   -4.5457 H         1 <0>         0.1215
@<TRIPOS>BOND
     1    1    2 1
     2    1   33 1
     3    1   34 1
     4    1   35 1
     5    2    9 1
     6    2    3 2
     7    3    4 1
     8    3   18 1
     9    4    5 2
    10    4    6 am
    11    6    7 1
    12    6    8 1
    13    8    9 2
    14    8   10 1
    15   10   11 1
    16   11   12 1
    17   11   36 1
    18   11   37 1
    19   12   17 ar
    20   12   13 ar
    21   13   14 ar
    22   13   38 1
    23   14   15 ar
    24   14   39 1
    25   15   16 ar
    26   15   40 1
    27   16   17 ar
    28   16   41 1
    29   17   42 1
    30   18   19 1
    31   18   43 1
    32   18   44 1
    33   19   20 2
    34   19   21 am
    35   21   26 1
    36   21   22 1
    37   22   23 1
    38   22   45 1
    39   22   46 1
    40   23   24 1
    41   23   47 1
    42   23   48 1
    43   24   25 1
    44   24   27 1
    45   25   26 1
    46   25   49 1
    47   25   50 1
    48   26   51 1
    49   26   52 1
    50   27   32 ar
    51   27   28 ar
    52   28   29 ar
    53   28   53 1
    54   29   30 ar
    55   29   54 1
    56   30   31 ar
    57   30   55 1
    58   31   32 ar
    59   31   56 1
    60   32   57 1
@<TRIPOS>MOLECULE
ZINC40129714
   38    40     0     0     0
SMALL
USER_CHARGES

@<TRIPOS>ATOM
      1 C1         -0.0173    1.4248    0.0099 C.3       1 <0>         0.0263
      2 O1          0.0021   -0.0041    0.0020 O.3       1 <0>        -0.3159
      3 C2          0.6056   -0.6069   -1.0553 C.ar      1 <0>         0.1363
      4 C3          1.1724    0.1645   -2.0615 C.ar      1 <0>        -0.2090
      5 C4          1.7856   -0.4434   -3.1359 C.ar      1 <0>        -0.0558
      6 C5          1.8364   -1.8363   -3.2118 C.ar      1 <0>        -0.0366
      7 C6          1.2655   -2.6083   -2.1984 C.ar      1 <0>        -0.0297
      8 C7          0.6591   -1.9929   -1.1244 C.ar      1 <0>        -0.1510
      9 C8          2.4926   -2.4923   -4.3625 C.2       1 <0>         0.1538
     10 N1          2.6411   -3.7838   -4.6226 N.2       1 <0>        -0.4358
     11 C9          3.2583   -4.1940   -5.7063 C.2       1 <0>         0.1104
     12 C10         3.7586   -3.2864   -6.5854 C.2       1 <0>        -0.2090
     13 S1          3.2931   -1.7576   -5.7825 S.3       1 <0>        -0.0489
     14 C11         3.4121   -5.6688   -5.9748 C.3       1 <0>        -0.0217
     15 C12         4.0798   -6.3272   -4.7950 C.2       1 <0>         0.4953
     16 O2          4.3222   -7.6544   -4.8111 O.3       1 <0>        -0.7277
     17 N2          4.4197   -5.6216   -3.7695 N.2       1 <0>        -1.0299
     18 S2          5.1535   -6.3451   -2.4731 S.o2      1 <0>         2.6676
     19 O3          4.1920   -7.2190   -1.8978 O.2       1 <0>        -0.9921
     20 O4          6.4216   -6.7994   -2.9256 O.2       1 <0>        -0.9986
     21 C13         5.4657   -5.0854   -1.2814 C.2       1 <0>        -0.6728
     22 C14         4.6767   -4.6565   -0.2666 C.2       1 <0>        -0.0328
     23 C15         5.1324   -3.6417    0.5546 C.2       1 <0>        -0.1578
     24 C16         6.3562   -3.1057    0.3194 C.2       1 <0>        -0.1150
     25 S3          6.9068   -4.0485   -1.0931 S.3       1 <0>         0.1968
     26 Cl1         7.1769   -1.8371    1.1743 Cl        1 <0>         0.0117
     27 H1          1.0053    1.8021    0.0021 H         1 <0>         0.0560
     28 H2         -0.5445    1.7859   -0.8732 H         1 <0>         0.0558
     29 H3         -0.5275    1.7763    0.9067 H         1 <0>         0.0986
     30 H4          1.1323    1.2422   -2.0022 H         1 <0>         0.1318
     31 H5          2.2258    0.1572   -3.9181 H         1 <0>         0.1281
     32 H6          1.3026   -3.6862   -2.2538 H         1 <0>         0.1481
     33 H7          0.2211   -2.5894   -0.3378 H         1 <0>         0.1370
     34 H8          4.2877   -3.4445   -7.5136 H         1 <0>         0.1936
     35 H9          2.4296   -6.1141   -6.1313 H         1 <0>         0.0983
     36 H10         4.0230   -5.8142   -6.8657 H         1 <0>         0.0972
     37 H11         3.7062   -5.1006   -0.1018 H         1 <0>         0.1525
     38 H12         4.5234   -3.2811    1.3704 H         1 <0>         0.1451
@<TRIPOS>BOND
     1    1    2 1
     2    1   27 1
     3    1   28 1
     4    1   29 1
     5    2    3 1
     6    3    8 ar
     7    3    4 ar
     8    4    5 ar
     9    4   30 1
    10    5    6 ar
    11    5   31 1
    12    6    7 ar
    13    6    9 1
    14    7    8 ar
    15    7   32 1
    16    8   33 1
    17    9   13 1
    18    9   10 2
    19   10   11 1
    20   11   12 2
    21   11   14 1
    22   12   13 1
    23   12   34 1
    24   14   15 1
    25   14   35 1
    26   14   36 1
    27   15   16 1
    28   15   17 2
    29   17   18 1
    30   18   19 2
    31   18   20 2
    32   18   21 1
    33   21   25 1
    34   21   22 2
    35   22   23 1
    36   22   37 1
    37   23   24 2
    38   23   38 1
    39   24   25 1
    40   24   26 1
@<TRIPOS>MOLECULE
ZINC59198204
   39    41     0     0     0
SMALL
USER_CHARGES

@<TRIPOS>ATOM
      1 C1          0.9721   -1.2561    0.3156 C.1       1 <0>        -0.1737
      2 C2          1.2877   -0.1511    0.5558 C.1       1 <0>        -0.1831
      3 C3          1.6834    1.2344    0.8570 C.3       1 <0>         0.1752
      4 O1          1.4440    2.0574   -0.2864 O.3       1 <0>        -0.3138
      5 C4          1.7570    3.3726   -0.1750 C.ar      1 <0>         0.1273
      6 C5          0.8032    4.2757    0.2878 C.ar      1 <0>        -0.0584
      7 C6          1.1135    5.6061    0.4027 C.ar      1 <0>         0.0337
      8 C7          2.3963    6.0575    0.0530 C.ar      1 <0>        -0.0573
      9 C8          3.3537    5.1420   -0.4125 C.ar      1 <0>        -0.0660
     10 C9          3.0327    3.8133   -0.5184 C.ar      1 <0>        -0.0630
     11 Cl1         4.2170    2.6787   -1.0875 Cl        1 <0>        -0.0567
     12 C10         2.7333    7.4742    0.1726 C.2       1 <0>         0.0518
     13 C11         2.3463    8.1861    1.2969 C.2       1 <0>        -0.2351
     14 C12         1.8470    7.5069    2.5029 C.2       1 <0>         0.4916
     15 O2          1.7514    6.1615    2.5480 O.3       1 <0>        -0.6156
     16 N1          1.4946    8.2452    3.5414 N.2       1 <0>        -0.6514
     17 C13         1.5785    9.5733    3.5257 C.2       1 <0>         0.6682
     18 O3          1.2346   10.1835    4.5223 O.2       1 <0>        -0.5549
     19 N2          2.0212   10.2768    2.4733 N.am      1 <0>        -0.5532
     20 C14         2.4220    9.6598    1.3410 C.2       1 <0>         0.5672
     21 O4          2.8280   10.2975    0.3874 O.2       1 <0>        -0.5111
     22 C15         2.0732   11.6750    2.5518 C.ar      1 <0>         0.1706
     23 C16         1.0235   12.4388    2.0595 C.ar      1 <0>        -0.0963
     24 C17         1.0773   13.8166    2.1380 C.ar      1 <0>        -0.0821
     25 C18         2.1761   14.4359    2.7067 C.ar      1 <0>        -0.0904
     26 C19         3.2237   13.6772    3.1977 C.ar      1 <0>        -0.0821
     27 C20         3.1721   12.2988    3.1272 C.ar      1 <0>        -0.0943
     28 Br1         2.2463   16.3226    2.8126 Br        1 <0>        -0.0575
     29 Cl2        -0.7822    3.7155    0.7197 Cl        1 <0>        -0.0504
     30 H1          0.6898   -2.2443    0.1008 H         1 <0>         0.2224
     31 H2          1.0991    1.6041    1.6996 H         1 <0>         0.0850
     32 H3          2.7434    1.2627    1.1095 H         1 <0>         0.0818
     33 H4          0.3727    6.3056    0.7611 H         1 <0>         0.1423
     34 H5          4.3421    5.4831   -0.6831 H         1 <0>         0.1442
     35 H6          3.2841    7.9666   -0.6152 H         1 <0>         0.1484
     36 H7          0.1657   11.9558    1.6151 H         1 <0>         0.1318
     37 H8          0.2611   14.4111    1.7548 H         1 <0>         0.1364
     38 H9          4.0804   14.1630    3.6409 H         1 <0>         0.1364
     39 H10         3.9878   11.7068    3.5153 H         1 <0>         0.1321
@<TRIPOS>BOND
     1    1    2 3
     2    1   30 1
     3    2    3 1
     4    3    4 1
     5    3   31 1
     6    3   32 1
     7    4    5 1
     8    5   10 ar
     9    5    6 ar
    10    6    7 ar
    11    6   29 1
    12    7    8 ar
    13    7   33 1
    14    8    9 ar
    15    8   12 1
    16    9   10 ar
    17    9   34 1
    18   10   11 1
    19   12   13 2
    20   12   35 1
    21   13   20 1
    22   13   14 1
    23   14   15 1
    24   14   16 2
    25   16   17 1
    26   17   18 2
    27   17   19 am
    28   19   20 am
    29   19   22 1
    30   20   21 2
    31   22   27 ar
    32   22   23 ar
    33   23   24 ar
    34   23   36 1
    35   24   25 ar
    36   24   37 1
    37   25   26 ar
    38   25   28 1
    39   26   27 ar
    40   26   38 1
    41   27   39 1
@<TRIPOS>MOLECULE
ZINC12376325
   46    48     0     0     0
SMALL
USER_CHARGES
(2Z,6S)-4-oxo-3-phenethyl-2-[4-(trifluoromethoxy)phenyl]imino-1,3-thiazinane-6-carboxylic acid
@<TRIPOS>ATOM
      1 C1         -4.5827   -9.2449    0.4167 C.ar      1 <0>        -0.1256
      2 C2         -4.5714   -7.8626    0.4153 C.ar      1 <0>        -0.1203
      3 C3         -3.5094   -7.1806   -0.1484 C.ar      1 <0>        -0.1114
      4 C4         -2.4583   -7.8809   -0.7103 C.ar      1 <0>        -0.0747
      5 C5         -2.4720   -9.2631   -0.7136 C.ar      1 <0>        -0.1123
      6 C6         -3.5320   -9.9452   -0.1460 C.ar      1 <0>        -0.1201
      7 C7         -1.3005   -7.1374   -1.3249 C.3       1 <0>        -0.0914
      8 C8         -0.2305   -6.8895   -0.2597 C.3       1 <0>         0.1063
      9 N1          0.8951   -6.1667   -0.8571 N.am      1 <0>        -0.5285
     10 C9          1.8822   -6.8799   -1.3845 C.2       1 <0>         0.5235
     11 O1          1.8071   -8.0832   -1.2548 O.2       1 <0>        -0.5182
     12 C10         3.0741   -6.3647   -2.1199 C.3       1 <0>        -0.1210
     13 C11         3.4165   -4.9282   -1.7254 C.3       1 <0>        -0.1102
     14 H1          3.7401   -4.9013   -0.6849 H         1 <0>         0.1066
     15 S1          1.9261   -3.9046   -1.9393 S.3       1 <0>        -0.0953
     16 C12         0.8621   -4.7865   -0.8354 C.2       1 <0>         0.3898
     17 N2          0.0583   -4.1458   -0.0208 N.2       1 <0>        -0.4901
     18 C13         0.0397   -2.7750   -0.0137 C.ar      1 <0>         0.0795
     19 C14        -1.1774   -2.0916    0.0021 C.ar      1 <0>        -0.0667
     20 C15        -1.1914   -0.7123    0.0096 C.ar      1 <0>        -0.1195
     21 C16         0.0021   -0.0041    0.0020 C.ar      1 <0>         0.0969
     22 C17         1.2143   -0.6795   -0.0190 C.ar      1 <0>        -0.1738
     23 C18         1.2377   -2.0587   -0.0217 C.ar      1 <0>        -0.0764
     24 O2         -0.0164    1.3556    0.0095 O.3       1 <0>        -0.3123
     25 C19         1.2479    2.0217    0.0010 C.3       1 <0>         0.6024
     26 F1          1.9569    1.6617   -1.1500 F         1 <0>        -0.1602
     27 F2          1.0458    3.4059    0.0104 F         1 <0>        -0.1351
     28 F3          1.9787    1.6494    1.1344 F         1 <0>        -0.1645
     29 C20         4.5186   -4.4085   -2.6121 C.2       1 <0>         0.4852
     30 O3          4.5712   -4.7457   -3.7711 O.co2     1 <0>        -0.6072
     31 H2         -5.4121   -9.7777    0.8578 H         1 <0>         0.1189
     32 H3         -5.3923   -7.3154    0.8550 H         1 <0>         0.1205
     33 H4         -3.5006   -6.1006   -0.1495 H         1 <0>         0.1231
     34 H5         -1.6530   -9.8102   -1.1566 H         1 <0>         0.1235
     35 H6         -3.5407  -11.0251   -0.1446 H         1 <0>         0.1205
     36 H7         -1.6495   -6.1826   -1.7183 H         1 <0>         0.0763
     37 H8         -0.8763   -7.7309   -2.1347 H         1 <0>         0.0769
     38 H9          0.1185   -7.8443    0.1338 H         1 <0>         0.0964
     39 H10        -0.6547   -6.2960    0.5502 H         1 <0>         0.1029
     40 H11         3.9288   -7.0050   -1.9019 H         1 <0>         0.1211
     41 H12         2.8719   -6.3992   -3.1904 H         1 <0>         0.1311
     42 H13        -2.1066   -2.6419    0.0087 H         1 <0>         0.1402
     43 H14        -2.1326   -0.1827    0.0218 H         1 <0>         0.1403
     44 H15         2.1407   -0.1244   -0.0290 H         1 <0>         0.1375
     45 H16         2.1815   -2.5835   -0.0335 H         1 <0>         0.1486
     46 O4          5.4419   -3.5710   -2.1142 O.co2     1 <0>        -0.7331
@<TRIPOS>BOND
     1    1    6 ar
     2    1    2 ar
     3    1   31 1
     4    2    3 ar
     5    2   32 1
     6    3    4 ar
     7    3   33 1
     8    4    5 ar
     9    4    7 1
    10    5    6 ar
    11    5   34 1
    12    6   35 1
    13    7    8 1
    14    7   36 1
    15    7   37 1
    16    8    9 1
    17    8   38 1
    18    8   39 1
    19    9   16 1
    20    9   10 am
    21   10   11 2
    22   10   12 1
    23   12   13 1
    24   12   40 1
    25   12   41 1
    26   13   14 1
    27   13   15 1
    28   13   29 1
    29   15   16 1
    30   16   17 2
    31   17   18 1
    32   18   23 ar
    33   18   19 ar
    34   19   20 ar
    35   19   42 1
    36   20   21 ar
    37   20   43 1
    38   21   22 ar
    39   21   24 1
    40   22   23 ar
    41   22   44 1
    42   23   45 1
    43   24   25 1
    44   25   26 1
    45   25   27 1
    46   25   28 1
    47   29   30 2
    48   29   46 1
@<TRIPOS>MOLECULE
ZINC13732412
   60    64     0     0     0
SMALL
USER_CHARGES
(2R)-2-[5-[(2-ethyl-5,7-dimethyl-imidazo[5,4-b]pyridin-3-yl)methyl]indolin-1-yl]-2-phenyl-acetic acid
@<TRIPOS>ATOM
      1 C1          8.0380   -1.4367    3.9268 C.3       1 <0>        -0.1465
      2 C2          6.6902   -1.3288    3.2108 C.3       1 <0>        -0.0509
      3 C3          5.5843   -1.2481    4.2313 C.2       1 <0>         0.2971
      4 N1          4.9546   -2.2713    4.7306 N.2       1 <0>        -0.4865
      5 C4          4.0227   -1.8407    5.6177 C.ar      1 <0>        -0.0048
      6 C5          3.0845   -2.4872    6.4284 C.ar      1 <0>         0.0108
      7 C6          2.2823   -1.7115    7.2433 C.ar      1 <0>        -0.1903
      8 C7          2.4198   -0.3323    7.2252 C.ar      1 <0>         0.1663
      9 N2          3.3065    0.2579    6.4510 N.ar      1 <0>        -0.4819
     10 C8          4.1050   -0.4374    5.6567 C.ar      1 <0>         0.2552
     11 N3          5.0982   -0.0941    4.7649 N.pl3     1 <0>        -0.4669
     12 C9          5.5518    1.2636    4.4532 C.3       1 <0>         0.1642
     13 C10         4.7491    1.8091    3.3003 C.ar      1 <0>        -0.1625
     14 C11         3.5778    2.5046    3.5394 C.ar      1 <0>        -0.0679
     15 C12         2.8411    3.0075    2.4877 C.ar      1 <0>        -0.1241
     16 C13         3.2725    2.8184    1.1756 C.ar      1 <0>         0.1429
     17 C14         4.4477    2.1134    0.9458 C.ar      1 <0>        -0.1607
     18 C15         5.1823    1.6148    2.0013 C.ar      1 <0>        -0.0687
     19 C16         4.6690    2.0499   -0.5523 C.3       1 <0>        -0.0767
     20 C17         3.2820    2.4293   -1.1202 C.3       1 <0>         0.0450
     21 N4          2.6964    3.2387   -0.0296 N.pl3     1 <0>        -0.4475
     22 C18         1.2350    3.0943    0.0069 C.3       1 <0>         0.0700
     23 H1          0.9761    2.1261    0.4354 H         1 <0>         0.0587
     24 C19         0.6859    3.1867   -1.3935 C.ar      1 <0>        -0.0432
     25 C20         1.0967    4.2069   -2.2310 C.ar      1 <0>        -0.0972
     26 C21         0.5964    4.2892   -3.5170 C.ar      1 <0>        -0.1258
     27 C22        -0.3216    3.3566   -3.9625 C.ar      1 <0>        -0.1313
     28 C23        -0.7363    2.3394   -3.1232 C.ar      1 <0>        -0.1238
     29 C24        -0.2327    2.2546   -1.8387 C.ar      1 <0>        -0.1072
     30 C25         0.6426    4.1923    0.8522 C.2       1 <0>         0.4770
     31 O1          1.3639    5.0111    1.3710 O.co2     1 <0>        -0.6074
     32 C26         1.5359    0.5091    8.1094 C.3       1 <0>        -0.1014
     33 C27         2.9625   -3.9892    6.4250 C.3       1 <0>        -0.1087
     34 H2          8.0494   -2.3333    4.5466 H         1 <0>         0.0636
     35 H3          8.8379   -1.4951    3.1887 H         1 <0>         0.0700
     36 H4          8.1869   -0.5587    4.5553 H         1 <0>         0.0550
     37 H5          6.5413   -2.2068    2.5823 H         1 <0>         0.1015
     38 H6          6.6788   -0.4322    2.5910 H         1 <0>         0.0887
     39 H7          1.5487   -2.1764    7.8853 H         1 <0>         0.1397
     40 H8          6.6074    1.2408    4.1824 H         1 <0>         0.0965
     41 H9          5.4143    1.9020    5.3259 H         1 <0>         0.1004
     42 H10         3.2389    2.6547    4.5538 H         1 <0>         0.1231
     43 H11         1.9274    3.5499    2.6811 H         1 <0>         0.1458
     44 H12         6.0965    1.0716    1.8132 H         1 <0>         0.1146
     45 H13         4.9492    1.0421   -0.8589 H         1 <0>         0.0750
     46 H14         5.4238    2.7727   -0.8621 H         1 <0>         0.0834
     47 H15         2.6826    1.5377   -1.3047 H         1 <0>         0.0556
     48 H16         3.3821    3.0211   -2.0301 H         1 <0>         0.0917
     49 H17         1.8110    4.9378   -1.8817 H         1 <0>         0.1253
     50 H18         0.9206    5.0837   -4.1728 H         1 <0>         0.1172
     51 H19        -0.7145    3.4224   -4.9663 H         1 <0>         0.1152
     52 H20        -1.4534    1.6108   -3.4713 H         1 <0>         0.1170
     53 H21        -0.5567    1.4599   -1.1830 H         1 <0>         0.1165
     54 H22         0.6259    0.7712    7.5696 H         1 <0>         0.0816
     55 H23         1.2770   -0.0542    9.0059 H         1 <0>         0.0759
     56 H24         2.0654    1.4189    8.3922 H         1 <0>         0.0770
     57 H25         3.6266   -4.4094    7.1804 H         1 <0>         0.0746
     58 H26         1.9335   -4.2707    6.6488 H         1 <0>         0.0697
     59 H27         3.2392   -4.3741    5.4435 H         1 <0>         0.0752
     60 O2         -0.6863    4.2606    1.0287 O.co2     1 <0>        -0.7551
@<TRIPOS>BOND
     1    1    2 1
     2    1   34 1
     3    1   35 1
     4    1   36 1
     5    2    3 1
     6    2   37 1
     7    2   38 1
     8    3   11 1
     9    3    4 2
    10    4    5 1
    11    5   10 ar
    12    5    6 ar
    13    6    7 ar
    14    6   33 1
    15    7    8 ar
    16    7   39 1
    17    8    9 ar
    18    8   32 1
    19    9   10 ar
    20   10   11 1
    21   11   12 1
    22   12   13 1
    23   12   40 1
    24   12   41 1
    25   13   18 ar
    26   13   14 ar
    27   14   15 ar
    28   14   42 1
    29   15   16 ar
    30   15   43 1
    31   16   21 1
    32   16   17 ar
    33   17   18 ar
    34   17   19 1
    35   18   44 1
    36   19   20 1
    37   19   45 1
    38   19   46 1
    39   20   21 1
    40   20   47 1
    41   20   48 1
    42   21   22 1
    43   22   23 1
    44   22   24 1
    45   22   30 1
    46   24   29 ar
    47   24   25 ar
    48   25   26 ar
    49   25   49 1
    50   26   27 ar
    51   26   50 1
    52   27   28 ar
    53   27   51 1
    54   28   29 ar
    55   28   52 1
    56   29   53 1
    57   30   31 2
    58   30   60 1
    59   32   54 1
    60   32   55 1
    61   32   56 1
    62   33   57 1
    63   33   58 1
    64   33   59 1
@<TRIPOS>MOLECULE
ZINC35421039
   45    48     0     0     0
SMALL
USER_CHARGES

@<TRIPOS>ATOM
      1 C1         -0.0184    1.5028    0.0103 C.3       1 <0>        -0.0495
      2 C2          0.0021   -0.0041    0.0020 C.2       1 <0>         0.0221
      3 N1          0.0098   -0.8457   -1.0129 N.2       1 <0>        -0.2532
      4 N2          0.0278   -2.0961   -0.8483 N.2       1 <0>        -0.3184
      5 C3          0.0401   -2.6423    0.3602 C.2       1 <0>         0.3266
      6 S1          0.0308   -1.1619    1.3675 S.3       1 <0>         0.0096
      7 N3          0.0594   -3.9788    0.7364 N.am      1 <0>        -0.4980
      8 C4          0.0773   -5.1317   -0.1717 C.3       1 <0>         0.2533
      9 H1          0.9713   -5.1044   -0.7947 H         1 <0>         0.0943
     10 C5          0.0945   -6.3597    0.7084 C.2       1 <0>        -0.4661
     11 C6          0.0867   -5.9220    1.9892 C.2       1 <0>         0.2867
     12 C7          0.0709   -4.4463    1.9980 C.2       1 <0>         0.5088
     13 O1          0.0658   -3.7551    2.9976 O.2       1 <0>        -0.4807
     14 O2          0.0966   -6.7125    3.0880 O.3       1 <0>        -0.5881
     15 C8          0.1148   -7.7572    0.2610 C.2       1 <0>         0.4499
     16 O3          0.1274   -8.6591    1.0803 O.2       1 <0>        -0.4836
     17 C9          0.1200   -8.0677   -1.1695 C.2       1 <0>        -0.1884
     18 C10         0.1387   -9.3539   -1.5812 C.2       1 <0>        -0.0735
     19 C11         0.1440   -9.6660   -3.0187 C.ar      1 <0>        -0.0530
     20 C12         0.1355   -8.6332   -3.9626 C.ar      1 <0>        -0.1099
     21 C13         0.1409   -8.9341   -5.3080 C.ar      1 <0>        -0.1194
     22 C14         0.1543  -10.2536   -5.7259 C.ar      1 <0>        -0.1229
     23 C15         0.1623  -11.2812   -4.7985 C.ar      1 <0>        -0.1221
     24 C16         0.1633  -10.9970   -3.4494 C.ar      1 <0>        -0.1062
     25 C17        -1.1568   -5.1295   -1.0366 C.ar      1 <0>        -0.0466
     26 C18        -2.3790   -4.7762   -0.4958 C.ar      1 <0>        -0.0930
     27 C19        -3.5110   -4.7736   -1.2888 C.ar      1 <0>        -0.0859
     28 C20        -3.4209   -5.1245   -2.6237 C.ar      1 <0>        -0.0911
     29 C21        -2.1978   -5.4779   -3.1645 C.ar      1 <0>        -0.0846
     30 C22        -1.0653   -5.4752   -2.3720 C.ar      1 <0>        -0.1019
     31 Br1        -4.9695   -5.1217   -3.7090 Br        1 <0>        -0.0636
     32 H2          1.0042    1.8801    0.0026 H         1 <0>         0.0891
     33 H3         -0.5455    1.8639   -0.8728 H         1 <0>         0.0947
     34 H4         -0.5286    1.8543    0.9071 H         1 <0>         0.0852
     35 H5          0.1089   -7.2684   -1.8956 H         1 <0>         0.1248
     36 H6          0.1499  -10.1533   -0.8551 H         1 <0>         0.1309
     37 H7          0.1243   -7.6032   -3.6381 H         1 <0>         0.1255
     38 H8          0.1344   -8.1380   -6.0379 H         1 <0>         0.1223
     39 H9          0.1582  -10.4827   -6.7813 H         1 <0>         0.1188
     40 H10         0.1724  -12.3081   -5.1325 H         1 <0>         0.1208
     41 H11         0.1745  -11.7998   -2.7269 H         1 <0>         0.1250
     42 H12        -2.4493   -4.5026    0.5466 H         1 <0>         0.1199
     43 H13        -4.4659   -4.4979   -0.8661 H         1 <0>         0.1283
     44 H14        -2.1269   -5.7519   -4.2067 H         1 <0>         0.1314
     45 H15        -0.1096   -5.7471   -2.7951 H         1 <0>         0.1318
@<TRIPOS>BOND
     1    1    2 1
     2    1   32 1
     3    1   33 1
     4    1   34 1
     5    2    6 1
     6    2    3 2
     7    3    4 1
     8    4    5 2
     9    5    6 1
    10    5    7 1
    11    7   12 am
    12    7    8 1
    13    8    9 1
    14    8   10 1
    15    8   25 1
    16   10   11 2
    17   10   15 1
    18   11   12 1
    19   11   14 1
    20   12   13 2
    21   15   16 2
    22   15   17 1
    23   17   18 2
    24   17   35 1
    25   18   19 1
    26   18   36 1
    27   19   24 ar
    28   19   20 ar
    29   20   21 ar
    30   20   37 1
    31   21   22 ar
    32   21   38 1
    33   22   23 ar
    34   22   39 1
    35   23   24 ar
    36   23   40 1
    37   24   41 1
    38   25   30 ar
    39   25   26 ar
    40   26   27 ar
    41   26   42 1
    42   27   28 ar
    43   27   43 1
    44   28   29 ar
    45   28   31 1
    46   29   30 ar
    47   29   44 1
    48   30   45 1
@<TRIPOS>MOLECULE
ZINC12345641
   46    48     0     0     0
SMALL
USER_CHARGES

@<TRIPOS>ATOM
      1 C1          0.3557    1.6083    0.3772 C.3       1 <0>        -0.1027
      2 C2          0.4947    0.1098    0.2988 C.ar      1 <0>         0.2085
      3 C3          0.7071   -0.5124   -0.9215 C.ar      1 <0>        -0.2894
      4 C4          0.8292   -1.8925   -0.9482 C.ar      1 <0>         0.1885
      5 N1          0.7398   -2.5700    0.1848 N.ar      1 <0>        -0.5687
      6 C5          0.5365   -1.9446    1.3329 C.ar      1 <0>         0.5249
      7 N2          0.4209   -0.6278    1.3945 N.ar      1 <0>        -0.5320
      8 O1          0.4497   -2.6696    2.4738 O.3       1 <0>        -0.2557
      9 C6          0.5866   -4.0870    2.3538 C.3       1 <0>        -0.0008
     10 H1          1.2366   -4.3191    1.5102 H         1 <0>         0.0958
     11 C7         -0.7691   -4.7054    2.1285 C.2       1 <0>         0.5037
     12 O2         -0.8644   -5.8995    1.9017 O.co2     1 <0>        -0.6688
     13 O3         -1.7706   -4.0115    2.1730 O.co2     1 <0>        -0.6752
     14 C8          1.1973   -4.6509    3.6383 C.3       1 <0>         0.2223
     15 C9          1.4683   -6.1228    3.4616 C.ar      1 <0>        -0.0402
     16 C10         1.7732   -6.6238    2.2098 C.ar      1 <0>        -0.0487
     17 C11         2.0219   -7.9736    2.0471 C.ar      1 <0>        -0.1111
     18 C12         1.9656   -8.8234    3.1374 C.ar      1 <0>        -0.0295
     19 C13         1.6604   -8.3214    4.3900 C.ar      1 <0>        -0.1205
     20 C14         1.4175   -6.9705    4.5524 C.ar      1 <0>        -0.0767
     21 Cl1         2.2773  -10.5190    2.9338 Cl        1 <0>        -0.0875
     22 C15         2.4890   -3.9346    3.9371 C.ar      1 <0>        -0.0883
     23 C16         3.2536   -3.4283    2.9025 C.ar      1 <0>        -0.0907
     24 C17         4.4384   -2.7712    3.1759 C.ar      1 <0>        -0.1087
     25 C18         4.8592   -2.6202    4.4852 C.ar      1 <0>        -0.0340
     26 C19         4.0937   -3.1272    5.5201 C.ar      1 <0>        -0.1113
     27 C20         2.9062   -3.7791    5.2458 C.ar      1 <0>        -0.0850
     28 Cl2         6.3476   -1.7956    4.8293 Cl        1 <0>        -0.0796
     29 O4          0.2857   -4.4612    4.7224 O.3       1 <0>        -0.3582
     30 C21        -0.0451   -3.0935    4.9710 C.3       1 <0>         0.0246
     31 H2          1.3382    2.0572    0.5234 H         1 <0>         0.0830
     32 H3         -0.0800    1.9817   -0.5495 H         1 <0>         0.0799
     33 H4         -0.2915    1.8699    1.2143 H         1 <0>         0.0819
     34 H5          0.7756    0.0655   -1.8313 H         1 <0>         0.1426
     35 H6          0.9948   -2.4087   -1.8823 H         1 <0>         0.1657
     36 H7          1.8168   -5.9604    1.3587 H         1 <0>         0.1269
     37 H8          2.2597   -8.3649    1.0690 H         1 <0>         0.1299
     38 H9          1.6160   -8.9844    5.2414 H         1 <0>         0.1290
     39 H10         1.1839   -6.5778    5.5310 H         1 <0>         0.1331
     40 H11         2.9251   -3.5465    1.8805 H         1 <0>         0.1263
     41 H12         5.0358   -2.3760    2.3676 H         1 <0>         0.1300
     42 H13         4.4218   -3.0099    6.5423 H         1 <0>         0.1331
     43 H14         2.3061   -4.1707    6.0539 H         1 <0>         0.1384
     44 H15         0.8703   -2.5079    5.0561 H         1 <0>         0.0403
     45 H16        -0.6467   -2.7096    4.1471 H         1 <0>         0.0770
     46 H17        -0.6113   -3.0196    5.8995 H         1 <0>         0.0775
@<TRIPOS>BOND
     1    1    2 1
     2    1   31 1
     3    1   32 1
     4    1   33 1
     5    2    7 ar
     6    2    3 ar
     7    3    4 ar
     8    3   34 1
     9    4    5 ar
    10    4   35 1
    11    5    6 ar
    12    6    7 ar
    13    6    8 1
    14    8    9 1
    15    9   10 1
    16    9   11 1
    17    9   14 1
    18   11   12 2
    19   11   13 1
    20   14   15 1
    21   14   22 1
    22   14   29 1
    23   15   20 ar
    24   15   16 ar
    25   16   17 ar
    26   16   36 1
    27   17   18 ar
    28   17   37 1
    29   18   19 ar
    30   18   21 1
    31   19   20 ar
    32   19   38 1
    33   20   39 1
    34   22   27 ar
    35   22   23 ar
    36   23   24 ar
    37   23   40 1
    38   24   25 ar
    39   24   41 1
    40   25   26 ar
    41   25   28 1
    42   26   27 ar
    43   26   42 1
    44   27   43 1
    45   29   30 1
    46   30   44 1
    47   30   45 1
    48   30   46 1
@<TRIPOS>MOLECULE
ZINC14870094
   46    47     0     0     0
SMALL
USER_CHARGES

@<TRIPOS>ATOM
      1 C1         -0.0184    1.5028    0.0103 C.3       1 <0>        -0.1079
      2 C2          0.0021   -0.0041    0.0020 C.ar      1 <0>        -0.0725
      3 C3          0.0057   -0.6882   -1.2000 C.ar      1 <0>        -0.1171
      4 C4          0.0240   -2.0707   -1.2121 C.ar      1 <0>        -0.6164
      5 C5          0.0391   -2.7732   -0.0230 C.ar      1 <0>        -0.1683
      6 C6          0.0360   -2.0893    1.1859 C.ar      1 <0>         0.2650
      7 C7          0.0228   -0.7000    1.1944 C.ar      1 <0>        -0.0935
      8 C8          0.0251    0.0464    2.5036 C.3       1 <0>        -0.0898
      9 N1          0.0513   -2.7965    2.3902 N.2       1 <0>        -1.0803
     10 S1          0.0732   -4.4524    2.3779 S.o2      1 <0>         2.5939
     11 O1         -1.1695   -4.8709    1.8301 O.2       1 <0>        -1.0136
     12 O2          1.3210   -4.8378    1.8179 O.2       1 <0>        -1.0203
     13 C9          0.0885   -4.9857    4.0572 C.ar      1 <0>        -0.6145
     14 C10         1.2918   -5.1736    4.7116 C.ar      1 <0>         0.0208
     15 C11         1.3045   -5.5923    6.0285 C.ar      1 <0>        -0.1347
     16 C12         0.1125   -5.8232    6.6923 C.ar      1 <0>         0.0432
     17 C13        -1.0911   -5.6346    6.0371 C.ar      1 <0>        -0.2057
     18 C14        -1.1026   -5.2107    4.7214 C.ar      1 <0>         0.0358
     19 C15        -2.3897   -5.8858    6.7593 C.3       1 <0>         0.5130
     20 F1         -3.4605   -5.6289    5.8964 F         1 <0>        -0.1699
     21 F2         -2.4391   -7.2192    7.1797 F         1 <0>        -0.1716
     22 F3         -2.4751   -5.0425    7.8723 F         1 <0>        -0.1705
     23 Cl1         0.1276   -6.3497    8.3464 Cl        1 <0>        -0.0453
     24 S2          0.0274   -2.9373   -2.7463 S.o2      1 <0>         2.6848
     25 O3         -0.5050   -4.2285   -2.4845 O.2       1 <0>        -0.9579
     26 O4         -0.5403   -2.0602   -3.7094 O.2       1 <0>        -0.9671
     27 N2          1.6101   -3.1571   -3.1810 N.pl3     1 <0>        -1.0071
     28 C16         2.3281   -4.3589   -2.7493 C.3       1 <0>         0.0919
     29 C17         2.2922   -2.1498   -3.9972 C.3       1 <0>         0.0887
     30 H1          1.0042    1.8801    0.0026 H         1 <0>         0.0638
     31 H2         -0.5455    1.8639   -0.8728 H         1 <0>         0.0606
     32 H3         -0.5286    1.8543    0.9071 H         1 <0>         0.0655
     33 H4         -0.0061   -0.1414   -2.1312 H         1 <0>         0.1207
     34 H5          0.0530   -3.8531   -0.0331 H         1 <0>         0.1130
     35 H6         -1.0019    0.2123    2.8290 H         1 <0>         0.0561
     36 H7          0.5541   -0.5398    3.2551 H         1 <0>         0.0768
     37 H8          0.5247    1.0064    2.3736 H         1 <0>         0.0472
     38 H9          2.2221   -4.9934    4.1934 H         1 <0>         0.1578
     39 H10         2.2445   -5.7397    6.5394 H         1 <0>         0.1518
     40 H11        -2.0423   -5.0595    4.2110 H         1 <0>         0.1620
     41 H12         2.2043   -5.1438   -3.4954 H         1 <0>         0.0569
     42 H13         3.3875   -4.1284   -2.6368 H         1 <0>         0.0721
     43 H14         1.9268   -4.6986   -1.7945 H         1 <0>         0.0774
     44 H15         1.6035   -1.3345   -4.2187 H         1 <0>         0.0841
     45 H16         3.1518   -1.7611   -3.4512 H         1 <0>         0.0601
     46 H17         2.6289   -2.6044   -4.9289 H         1 <0>         0.0609
@<TRIPOS>BOND
     1    1    2 1
     2    1   30 1
     3    1   31 1
     4    1   32 1
     5    2    7 ar
     6    2    3 ar
     7    3    4 ar
     8    3   33 1
     9    4    5 ar
    10    4   24 1
    11    5    6 ar
    12    5   34 1
    13    6    7 ar
    14    6    9 1
    15    7    8 1
    16    8   35 1
    17    8   36 1
    18    8   37 1
    19    9   10 1
    20   10   11 2
    21   10   12 2
    22   10   13 1
    23   13   18 ar
    24   13   14 ar
    25   14   15 ar
    26   14   38 1
    27   15   16 ar
    28   15   39 1
    29   16   17 ar
    30   16   23 1
    31   17   18 ar
    32   17   19 1
    33   18   40 1
    34   19   20 1
    35   19   21 1
    36   19   22 1
    37   24   25 2
    38   24   26 2
    39   24   27 1
    40   27   28 1
    41   27   29 1
    42   28   41 1
    43   28   42 1
    44   28   43 1
    45   29   44 1
    46   29   45 1
    47   29   46 1
@<TRIPOS>MOLECULE
ZINC08049823
   34    36     0     0     0
SMALL
USER_CHARGES
2-[[4-(2-furylmethyleneamino)-5-(2-methyl-3-furyl)-1,2,4-triazol-3-yl]sulfanyl]acetic acid
@<TRIPOS>ATOM
      1 C1          3.4123   -1.2749    5.9057 C.3       1 <0>        -0.0797
      2 C2          2.3376   -0.5283    6.6532 C.2       1 <0>         0.0568
      3 C3          1.3197    0.1770    6.0896 C.2       1 <0>        -0.1250
      4 C4          0.5384    0.7133    7.2114 C.2       1 <0>        -0.1949
      5 C5          1.1540    0.2904    8.3277 C.2       1 <0>        -0.0324
      6 O1          2.2238   -0.4440    7.9867 O.3       1 <0>        -0.1754
      7 C6          1.0519    0.3600    4.6469 C.2       1 <0>         0.2513
      8 N1          1.7596   -0.1272    3.6532 N.2       1 <0>        -0.2685
      9 N2          1.2404    0.2211    2.5307 N.2       1 <0>        -0.2860
     10 C7          0.1742    0.9607    2.7352 C.2       1 <0>         0.1665
     11 N3          0.0132    1.0729    4.0909 N.pl3     1 <0>        -0.3381
     12 N4         -0.9965    1.7677    4.7696 N.2       1 <0>        -0.2357
     13 C8         -2.1034    1.1617    5.0862 C.2       1 <0>         0.2230
     14 C9         -3.1595    1.8885    5.7962 C.2       1 <0>        -0.0073
     15 C10        -4.3631    1.3758    6.1861 C.2       1 <0>        -0.1311
     16 C11        -5.0570    2.4169    6.8287 C.2       1 <0>        -0.2224
     17 C12        -4.2566    3.5028    6.8021 C.2       1 <0>         0.0014
     18 O2         -3.1102    3.1790    6.1836 O.3       1 <0>        -0.1514
     19 S1         -0.8599    1.6695    1.4972 S.3       1 <0>         0.0533
     20 C13        -0.0127    1.0858    0.0080 C.3       1 <0>        -0.1428
     21 C14        -0.7416    1.5850   -1.2129 C.2       1 <0>         0.4827
     22 O3         -1.7322    2.2656   -1.0889 O.co2     1 <0>        -0.6206
     23 H1          4.2571   -0.6105    5.7242 H         1 <0>         0.0882
     24 H2          3.7418   -2.1279    6.4989 H         1 <0>         0.0771
     25 H3          3.0153   -1.6263    4.9533 H         1 <0>         0.1086
     26 H4         -0.3507    1.3234    7.1510 H         1 <0>         0.1497
     27 H5          0.8386    0.5069    9.3377 H         1 <0>         0.2081
     28 H6         -2.2439    0.1230    4.8259 H         1 <0>         0.1557
     29 H7         -4.7143    0.3663    6.0316 H         1 <0>         0.1620
     30 H8         -6.0446    2.3582    7.2618 H         1 <0>         0.1587
     31 H9         -4.4972    4.4716    7.2142 H         1 <0>         0.2112
     32 H10         0.0021   -0.0041    0.0020 H         1 <0>         0.1001
     33 H11         1.0099    1.4631    0.0003 H         1 <0>         0.1009
     34 O4         -0.2903    1.2736   -2.4381 O.co2     1 <0>        -0.7438
@<TRIPOS>BOND
     1    1    2 1
     2    1   23 1
     3    1   24 1
     4    1   25 1
     5    2    6 1
     6    2    3 2
     7    3    4 1
     8    3    7 1
     9    4    5 2
    10    4   26 1
    11    5    6 1
    12    5   27 1
    13    7   11 1
    14    7    8 2
    15    8    9 1
    16    9   10 2
    17   10   11 1
    18   10   19 1
    19   11   12 1
    20   12   13 2
    21   13   14 1
    22   13   28 1
    23   14   18 1
    24   14   15 2
    25   15   16 1
    26   15   29 1
    27   16   17 2
    28   16   30 1
    29   17   18 1
    30   17   31 1
    31   19   20 1
    32   20   21 1
    33   20   32 1
    34   20   33 1
    35   21   22 2
    36   21   34 1
@<TRIPOS>MOLECULE
ZINC12603658
   46    48     0     0     0
SMALL
USER_CHARGES
3-[[5-(3-morpholinosulfonylphenyl)-1,3,4-oxadiazol-2-yl]sulfanyl]pentane-2,4-dione
@<TRIPOS>ATOM
      1 C1          1.8930    2.4743    1.1275 C.3       1 <0>        -0.1966
      2 C2          1.4011    1.6074   -0.0027 C.2       1 <0>         0.3746
      3 O1          2.1399    1.3307   -0.9170 O.3       1 <0>        -0.5754
      4 C3         -0.0127    1.0858    0.0080 C.2       1 <0>        -0.6775
      5 C4         -0.2499    0.2521   -1.2248 C.2       1 <0>         0.5142
      6 O2         -0.1133   -0.9469   -1.1783 O.2       1 <0>        -0.4975
      7 C5         -0.6575    0.9146   -2.5155 C.3       1 <0>        -0.1842
      8 S1         -0.8599    1.6695    1.4972 S.3       1 <0>         0.1836
      9 C6         -2.3911    0.8132    1.3336 C.2       1 <0>         0.1452
     10 N1         -2.7254   -0.0022    0.3601 N.2       1 <0>        -0.2860
     11 N2         -3.9156   -0.4464    0.5634 N.2       1 <0>        -0.2485
     12 C7         -4.3885    0.0665    1.6729 C.2       1 <0>         0.1407
     13 O3         -3.4312    0.8702    2.1870 O.3       1 <0>        -0.2208
     14 C8         -5.7207   -0.1914    2.2575 C.ar      1 <0>        -0.0074
     15 C9         -6.0916    0.4223    3.4556 C.ar      1 <0>        -0.0399
     16 C10        -7.3386    0.1810    3.9933 C.ar      1 <0>        -0.1336
     17 C11        -8.2176   -0.6752    3.3533 C.ar      1 <0>        -0.0145
     18 C12        -7.8545   -1.2907    2.1687 C.ar      1 <0>        -0.6781
     19 C13        -6.6121   -1.0543    1.6174 C.ar      1 <0>         0.0179
     20 S2         -8.9812   -2.3794    1.3625 S.o2      1 <0>         2.6927
     21 O4        -10.2833   -2.0094    1.7949 O.2       1 <0>        -0.9515
     22 O5         -8.6120   -2.4029   -0.0094 O.2       1 <0>        -0.9439
     23 N3         -8.7005   -3.9004    1.9542 N.pl3     1 <0>        -1.0007
     24 C14        -7.7300   -4.7977    1.3073 C.3       1 <0>         0.0823
     25 C15        -6.7800   -5.3360    2.3892 C.3       1 <0>         0.0443
     26 O6         -7.5516   -5.8976    3.4536 O.3       1 <0>        -0.3753
     27 C16        -8.3902   -4.9566    4.1283 C.3       1 <0>         0.0447
     28 C17        -9.4186   -4.3969    3.1388 C.3       1 <0>         0.0846
     29 H1          2.9407    2.7552    0.9449 H         1 <0>         0.0631
     30 H2          1.8221    1.9180    2.0739 H         1 <0>         0.0711
     31 H3          1.2752    3.3823    1.1888 H         1 <0>         0.0693
     32 H4         -0.7832    0.1501   -3.2963 H         1 <0>         0.0565
     33 H5          0.1210    1.6283   -2.8231 H         1 <0>         0.0782
     34 H6         -1.6077    1.4491   -2.3692 H         1 <0>         0.0728
     35 H7         -5.4049    1.0872    3.9583 H         1 <0>         0.1408
     36 H8         -7.6282    0.6579    4.9179 H         1 <0>         0.1418
     37 H9         -9.1913   -0.8640    3.7807 H         1 <0>         0.1436
     38 H10        -6.3298   -1.5354    0.6926 H         1 <0>         0.1546
     39 H11        -8.2645   -5.6295    0.8251 H         1 <0>         0.0872
     40 H12        -7.1621   -4.2383    0.5493 H         1 <0>         0.1049
     41 H13        -6.1309   -6.1105    1.9548 H         1 <0>         0.1114
     42 H14        -6.1608   -4.5132    2.7759 H         1 <0>         0.0599
     43 H15        -8.9109   -5.4581    4.9574 H         1 <0>         0.1079
     44 H16        -7.7749   -4.1355    4.5249 H         1 <0>         0.0578
     45 H17        -9.9762   -3.5700    3.6028 H         1 <0>         0.1000
     46 H18       -10.1203   -5.1885    2.8372 H         1 <0>         0.0857
@<TRIPOS>BOND
     1    1   29 1
     2    1   30 1
     3    1   31 1
     4    1    2 1
     5    2    4 2
     6    2    3 1
     7    4    8 1
     8    4    5 1
     9    5    7 1
    10    5    6 2
    11    7   32 1
    12    7   33 1
    13    7   34 1
    14    8    9 1
    15    9   13 1
    16    9   10 2
    17   10   11 1
    18   11   12 2
    19   12   13 1
    20   12   14 1
    21   14   19 ar
    22   14   15 ar
    23   15   16 ar
    24   15   35 1
    25   16   17 ar
    26   16   36 1
    27   17   18 ar
    28   17   37 1
    29   18   19 ar
    30   18   20 1
    31   19   38 1
    32   20   21 2
    33   20   22 2
    34   20   23 1
    35   23   28 1
    36   23   24 1
    37   24   25 1
    38   24   39 1
    39   24   40 1
    40   25   26 1
    41   25   41 1
    42   25   42 1
    43   26   27 1
    44   27   28 1
    45   27   43 1
    46   27   44 1
    47   28   45 1
    48   28   46 1
@<TRIPOS>MOLECULE
ZINC39964627
   45    48     0     0     0
SMALL
USER_CHARGES

@<TRIPOS>ATOM
      1 C1         -0.1428    1.4609    0.1145 C.3       1 <0>         0.1043
      2 N1         -0.1025   -0.0033    0.0905 N.am      1 <0>        -0.5934
      3 C2         -1.3571   -0.7707    0.0510 C.3       1 <0>         0.2913
      4 H1         -2.0079   -0.4583    0.8678 H         1 <0>         0.1250
      5 C3         -1.2096   -2.3155    0.0546 C.3       1 <0>         0.0990
      6 H2         -1.7991   -2.7481    0.8630 H         1 <0>         0.1398
      7 C4          0.2104   -2.8405    0.1061 C.2       1 <0>         0.5256
      8 O1          0.4249   -4.0337    0.1060 O.2       1 <0>        -0.4850
      9 N2          1.2292   -1.9649    0.1514 N.am      1 <0>        -0.5618
     10 C5          1.0777   -0.6392    0.0991 C.2       1 <0>         0.7012
     11 O2          2.0834    0.0427    0.1268 O.2       1 <0>        -0.5605
     12 C6          2.5925   -2.4991    0.2002 C.3       1 <0>         0.0762
     13 N3         -1.7708   -2.7057   -1.2483 N.pl3     1 <0>        -0.6075
     14 C7         -2.1819   -1.5775   -1.8995 C.2       1 <0>         0.5519
     15 N4         -1.9944   -0.4691   -1.2374 N.2       1 <0>        -0.5991
     16 O3         -2.7470   -1.6052   -3.1266 O.3       1 <0>        -0.2408
     17 C8         -3.2113   -0.4369   -3.6414 C.ar      1 <0>         0.0657
     18 C9         -2.3213    0.4906   -4.1673 C.ar      1 <0>        -0.0993
     19 C10        -2.7887    1.6771   -4.6901 C.ar      1 <0>        -0.0938
     20 C11        -4.1581    1.9458   -4.6910 C.ar      1 <0>         0.0657
     21 C12        -5.0494    1.0114   -4.1622 C.ar      1 <0>        -0.0956
     22 C13        -4.5753   -0.1753   -3.6458 C.ar      1 <0>        -0.1044
     23 C14        -4.6636    3.2185   -5.2509 C.2       1 <0>         0.0700
     24 N5         -3.9362    4.1977   -5.7918 N.2       1 <0>        -0.3635
     25 N6         -4.7502    5.1282   -6.1572 N.2       1 <0>        -0.1886
     26 N7         -5.9543    4.7764   -5.8698 N.2       1 <0>        -0.1889
     27 N8         -5.9372    3.6106   -5.3195 N.2       1 <0>        -0.3643
     28 C15        -1.8718   -4.0743   -1.7611 C.3       1 <0>         0.1566
     29 C16        -3.1919   -4.6704   -1.3452 C.2       1 <0>        -0.1803
     30 C17        -4.0023   -5.1623   -2.2493 C.2       1 <0>        -0.1628
     31 H3          0.8743    1.8521    0.1377 H         1 <0>         0.0913
     32 H4         -0.6519    1.8250   -0.7779 H         1 <0>         0.0780
     33 H5         -0.6809    1.7951    1.0016 H         1 <0>         0.0650
     34 H6          2.9701   -2.6244   -0.8146 H         1 <0>         0.0690
     35 H7          3.2348   -1.8064    0.7440 H         1 <0>         0.0946
     36 H8          2.5868   -3.4638    0.7075 H         1 <0>         0.0895
     37 H9         -1.2616    0.2820   -4.1663 H         1 <0>         0.1214
     38 H10        -2.0960    2.3982   -5.0983 H         1 <0>         0.1361
     39 H11        -6.1098    1.2163   -4.1609 H         1 <0>         0.1377
     40 H12        -5.2649   -0.9007   -3.2400 H         1 <0>         0.1260
     41 H13        -1.8060   -4.0605   -2.8490 H         1 <0>         0.0913
     42 H14        -1.0579   -4.6752   -1.3555 H         1 <0>         0.1042
     43 H15        -3.4699   -4.6921   -0.3018 H         1 <0>         0.1107
     44 H16        -4.9484   -5.5896   -1.9513 H         1 <0>         0.1016
     45 H17        -3.7244   -5.1406   -3.2927 H         1 <0>         0.1007
@<TRIPOS>BOND
     1    1    2 1
     2    1   31 1
     3    1   32 1
     4    1   33 1
     5    2   10 am
     6    2    3 1
     7    3    4 1
     8    3   15 1
     9    3    5 1
    10    5    6 1
    11    5    7 1
    12    5   13 1
    13    7    8 2
    14    7    9 am
    15    9   10 am
    16    9   12 1
    17   10   11 2
    18   12   34 1
    19   12   35 1
    20   12   36 1
    21   13   14 1
    22   13   28 1
    23   14   15 2
    24   14   16 1
    25   16   17 1
    26   17   22 ar
    27   17   18 ar
    28   18   19 ar
    29   18   37 1
    30   19   20 ar
    31   19   38 1
    32   20   21 ar
    33   20   23 1
    34   21   22 ar
    35   21   39 1
    36   22   40 1
    37   23   27 2
    38   23   24 1
    39   24   25 1
    40   25   26 2
    41   26   27 1
    42   28   29 1
    43   28   41 1
    44   28   42 1
    45   29   30 2
    46   29   43 1
    47   30   44 1
    48   30   45 1
@<TRIPOS>MOLECULE
ZINC20729825
   40    43     0     0     0
SMALL
USER_CHARGES

@<TRIPOS>ATOM
      1 C1         -0.0184    1.5028    0.0103 C.3       1 <0>        -0.0816
      2 C2          0.0021   -0.0041    0.0020 C.2       1 <0>         0.1478
      3 C3          0.0079   -0.8105   -1.1275 C.2       1 <0>        -0.2459
      4 C4          0.0322   -2.1158   -0.7151 C.2       1 <0>         0.3373
      5 N1          0.0321   -2.1166    0.6358 N.pl3     1 <0>        -0.3192
      6 N2          0.0231   -0.7781    1.0615 N.2       1 <0>        -0.2583
      7 C5          0.0444   -3.2419    1.4582 C.ar      1 <0>         0.5670
      8 N3          0.0631   -4.4447    0.9063 N.ar      1 <0>        -0.5549
      9 C6          0.0752   -5.5334    1.6573 C.ar      1 <0>         0.1857
     10 C7          0.0680   -5.4026    3.0374 C.ar      1 <0>        -0.2515
     11 C8          0.0484   -4.1276    3.5812 C.ar      1 <0>         0.1836
     12 N4          0.0425   -3.0814    2.7719 N.ar      1 <0>        -0.5056
     13 N5          0.0637   -3.1747   -1.6203 N.am      1 <0>        -0.6375
     14 C9          0.2740   -2.8910   -2.9233 C.2       1 <0>         0.5362
     15 O1          0.1185   -3.7669   -3.7477 O.2       1 <0>        -0.5167
     16 C10         0.6943   -1.5241   -3.3841 C.3       1 <0>        -0.1348
     17 C11        -0.0134   -0.4256   -2.5850 C.3       1 <0>         0.0450
     18 H1         -1.0447   -0.3311   -2.9249 H         1 <0>         0.0931
     19 C12         0.7066    0.8846   -2.7748 C.ar      1 <0>        -0.0890
     20 C13         2.0413    0.9937   -2.4257 C.ar      1 <0>        -0.1244
     21 C14         2.7065    2.1898   -2.5962 C.ar      1 <0>        -0.0829
     22 C15         2.0298    3.2927   -3.1231 C.ar      1 <0>        -0.1270
     23 C16         0.6824    3.1751   -3.4736 C.ar      1 <0>        -0.0830
     24 C17         0.0314    1.9712   -3.3025 C.ar      1 <0>        -0.1285
     25 C18         2.7344    4.5757   -3.3079 C.2       1 <0>         0.5174
     26 O2          3.9137    4.6756   -2.9997 O.co2     1 <0>        -0.6878
     27 O3          2.1393    5.5393   -3.7693 O.co2     1 <0>        -0.6875
     28 H2          1.0042    1.8801    0.0026 H         1 <0>         0.0908
     29 H3         -0.5455    1.8639   -0.8728 H         1 <0>         0.0918
     30 H4         -0.5286    1.8543    0.9071 H         1 <0>         0.0753
     31 H5          0.0900   -6.5122    1.2011 H         1 <0>         0.1812
     32 H6          0.0772   -6.2745    3.6746 H         1 <0>         0.1573
     33 H7          0.0423   -3.9902    4.6524 H         1 <0>         0.1804
     34 H8         -0.0617   -4.0894   -1.3227 H         1 <0>         0.4229
     35 H9          1.7718   -1.4200   -3.2566 H         1 <0>         0.1113
     36 H10         0.4484   -1.4121   -4.4401 H         1 <0>         0.1167
     37 H11         2.5631    0.1403   -2.0186 H         1 <0>         0.1086
     38 H12         3.7480    2.2737   -2.3227 H         1 <0>         0.1244
     39 H13         0.1531    4.0235   -3.8815 H         1 <0>         0.1264
     40 H14        -1.0088    1.8775   -3.5771 H         1 <0>         0.1158
@<TRIPOS>BOND
     1    1    2 1
     2    1   28 1
     3    1   29 1
     4    1   30 1
     5    2    6 2
     6    2    3 1
     7    3   17 1
     8    3    4 2
     9    4    5 1
    10    4   13 1
    11    5    6 1
    12    5    7 1
    13    7   12 ar
    14    7    8 ar
    15    8    9 ar
    16    9   10 ar
    17    9   31 1
    18   10   11 ar
    19   10   32 1
    20   11   12 ar
    21   11   33 1
    22   13   14 am
    23   13   34 1
    24   14   15 2
    25   14   16 1
    26   16   17 1
    27   16   35 1
    28   16   36 1
    29   17   18 1
    30   17   19 1
    31   19   24 ar
    32   19   20 ar
    33   20   21 ar
    34   20   37 1
    35   21   22 ar
    36   21   38 1
    37   22   23 ar
    38   22   25 1
    39   23   24 ar
    40   23   39 1
    41   24   40 1
    42   25   26 2
    43   25   27 1
@<TRIPOS>MOLECULE
ZINC65832436
   38    40     0     0     0
SMALL
USER_CHARGES

@<TRIPOS>ATOM
      1 C1         -0.0173    1.4248    0.0099 C.3       1 <0>         0.0307
      2 O1          0.0021   -0.0041    0.0020 O.3       1 <0>        -0.3826
      3 C2          0.6518   -0.5703   -1.1379 C.3       1 <0>         0.1100
      4 C3          0.6137   -2.0738   -1.0425 C.ar      1 <0>        -0.0603
      5 C4          1.6367   -2.7516   -0.4046 C.ar      1 <0>        -0.2005
      6 C5          1.6058   -4.1310   -0.3153 C.ar      1 <0>        -0.0702
      7 C6          0.5523   -4.8368   -0.8629 C.ar      1 <0>        -0.2563
      8 C7         -0.4769   -4.1592   -1.5037 C.ar      1 <0>         0.2739
      9 C8         -0.4454   -2.7727   -1.5872 C.ar      1 <0>        -0.1558
     10 N1         -1.5438   -4.8697   -2.0586 N.2       1 <0>        -1.0877
     11 S1         -1.5826   -6.5218   -1.9527 S.o2      1 <0>         2.5963
     12 O2         -0.4970   -7.0044   -2.7324 O.2       1 <0>        -1.0220
     13 O3         -1.7304   -6.8371   -0.5750 O.2       1 <0>        -1.0230
     14 C9         -3.0566   -7.0607   -2.7536 C.ar      1 <0>        -0.5936
     15 C10        -4.2291   -7.1861   -2.0310 C.ar      1 <0>        -0.0113
     16 C11        -5.3877   -7.6087   -2.6560 C.ar      1 <0>        -0.1198
     17 C12        -5.3771   -7.9070   -4.0048 C.ar      1 <0>        -0.0830
     18 C13        -4.2018   -7.7820   -4.7326 C.ar      1 <0>         0.0952
     19 C14        -3.0413   -7.3521   -4.1034 C.ar      1 <0>        -0.0016
     20 N2         -4.1880   -8.0841   -6.1023 N.pl3     1 <0>        -0.3181
     21 C15        -5.2423   -8.4111   -6.8807 C.2       1 <0>         0.2192
     22 N3         -4.7851   -8.6125   -8.0888 N.2       1 <0>        -0.3331
     23 N4         -3.5138   -8.4351   -8.1273 N.2       1 <0>        -0.0396
     24 N5         -3.0746   -8.1055   -6.9606 N.2       1 <0>        -0.0679
     25 H1          1.0053    1.8021    0.0021 H         1 <0>         0.0363
     26 H2         -0.5445    1.7859   -0.8732 H         1 <0>         0.0376
     27 H3         -0.5275    1.7763    0.9067 H         1 <0>         0.0811
     28 H4          0.1385   -0.2506   -2.0447 H         1 <0>         0.0522
     29 H5          1.6883   -0.2344   -1.1694 H         1 <0>         0.0501
     30 H6          2.4616   -2.2022    0.0244 H         1 <0>         0.1026
     31 H7          2.4066   -4.6573    0.1829 H         1 <0>         0.1046
     32 H8          0.5290   -5.9142   -0.7930 H         1 <0>         0.0974
     33 H9         -1.2460   -2.2425   -2.0813 H         1 <0>         0.1125
     34 H10        -4.2397   -6.9539   -0.9763 H         1 <0>         0.1500
     35 H11        -6.3018   -7.7061   -2.0891 H         1 <0>         0.1454
     36 H12        -6.2823   -8.2374   -4.4925 H         1 <0>         0.1378
     37 H13        -2.1264   -7.2497   -4.6681 H         1 <0>         0.1554
     38 H14        -6.2716   -8.4916   -6.5638 H         1 <0>         0.2382
@<TRIPOS>BOND
     1    1    2 1
     2    1   25 1
     3    1   26 1
     4    1   27 1
     5    2    3 1
     6    3    4 1
     7    3   28 1
     8    3   29 1
     9    4    9 ar
    10    4    5 ar
    11    5    6 ar
    12    5   30 1
    13    6    7 ar
    14    6   31 1
    15    7    8 ar
    16    7   32 1
    17    8    9 ar
    18    8   10 1
    19    9   33 1
    20   10   11 1
    21   11   12 2
    22   11   13 2
    23   11   14 1
    24   14   19 ar
    25   14   15 ar
    26   15   16 ar
    27   15   34 1
    28   16   17 ar
    29   16   35 1
    30   17   18 ar
    31   17   36 1
    32   18   19 ar
    33   18   20 1
    34   19   37 1
    35   20   24 1
    36   20   21 1
    37   21   22 2
    38   21   38 1
    39   22   23 1
    40   23   24 2
@<TRIPOS>MOLECULE
ZINC67473101
   45    47     0     0     0
SMALL
USER_CHARGES

@<TRIPOS>ATOM
      1 C1          0.3858    1.3499   -0.3322 C.3       1 <0>        -0.1524
      2 C2          0.2394   -0.1730   -0.3219 C.3       1 <0>        -0.1230
      3 C3         -1.2126   -0.5437   -0.0136 C.3       1 <0>        -0.0535
      4 C4         -1.3568   -2.0437   -0.0034 C.2       1 <0>         0.0799
      5 C5         -1.2075   -2.8430    1.0685 C.2       1 <0>        -0.2428
      6 C6         -1.4267   -4.1783    0.6534 C.2       1 <0>         0.0839
      7 N1         -1.6974   -4.1598   -0.6292 N.2       1 <0>        -0.2894
      8 O1         -1.6619   -2.8115   -1.0604 O.3       1 <0>        -0.0714
      9 C7         -1.3614   -5.3836    1.5156 C.2       1 <0>         0.5842
     10 O2         -1.2281   -5.2643    2.7174 O.2       1 <0>        -0.4966
     11 N2         -1.4498   -6.6110    0.9660 N.am      1 <0>        -0.5938
     12 C8         -1.4507   -6.7792   -0.4936 C.3       1 <0>         0.0851
     13 C9         -0.3522   -7.7762   -0.8757 C.3       1 <0>        -0.1315
     14 C10        -0.5536   -9.0758   -0.0930 C.3       1 <0>        -0.1128
     15 C11        -0.4475   -8.7916    1.4070 C.3       1 <0>        -0.1155
     16 H1          0.5285   -8.3592    1.6272 H         1 <0>         0.0952
     17 C12        -1.5410   -7.8066    1.8150 C.3       1 <0>         0.1162
     18 C13        -0.6155  -10.0970    2.1872 C.3       1 <0>         0.1362
     19 N3         -0.3955   -9.8451    3.6136 N.pl3     1 <0>        -0.3798
     20 C14        -1.2417  -10.1391    4.6196 C.2       1 <0>         0.0412
     21 C15        -0.6291   -9.7295    5.7841 C.2       1 <0>        -0.0850
     22 N4          0.5661   -9.1996    5.4664 N.2       1 <0>        -0.1996
     23 N5          0.7381   -9.2578    4.1921 N.2       1 <0>        -0.1075
     24 C16        -1.1860   -9.8504    7.1405 C.2       1 <0>         0.5596
     25 O3         -2.2894  -10.3524    7.3063 O.co2     1 <0>        -0.6888
     26 O4         -0.5459   -9.4489    8.1027 O.co2     1 <0>        -0.6688
     27 H2          1.4203    1.6140   -0.5519 H         1 <0>         0.0602
     28 H3         -0.2670    1.7725   -1.0959 H         1 <0>         0.0574
     29 H4          0.1086    1.7482    0.6438 H         1 <0>         0.0588
     30 H5          0.5167   -0.5713   -1.2979 H         1 <0>         0.0694
     31 H6          0.8923   -0.5956    0.4418 H         1 <0>         0.0717
     32 H7         -1.4899   -0.1454    0.9624 H         1 <0>         0.1039
     33 H8         -1.8655   -0.1211   -0.7773 H         1 <0>         0.0937
     34 H9         -0.9632   -2.5219    2.0703 H         1 <0>         0.1697
     35 H10        -2.4192   -7.1610   -0.8168 H         1 <0>         0.0751
     36 H11        -1.2558   -5.8195   -0.9722 H         1 <0>         0.1162
     37 H12        -0.4046   -7.9834   -1.9445 H         1 <0>         0.0820
     38 H13         0.6229   -7.3534   -0.6340 H         1 <0>         0.0688
     39 H14        -1.5389   -9.4852   -0.3162 H         1 <0>         0.0707
     40 H15         0.2123   -9.7958   -0.3813 H         1 <0>         0.0745
     41 H16        -1.4055   -7.5245    2.8591 H         1 <0>         0.0998
     42 H17        -2.5170   -8.2740    1.6843 H         1 <0>         0.0754
     43 H18        -1.6241  -10.4824    2.0377 H         1 <0>         0.0987
     44 H19         0.1097  -10.8288    1.8314 H         1 <0>         0.0941
     45 H20        -2.2120  -10.6050    4.5308 H         1 <0>         0.1907
@<TRIPOS>BOND
     1    1    2 1
     2    1   27 1
     3    1   28 1
     4    1   29 1
     5    2    3 1
     6    2   30 1
     7    2   31 1
     8    3    4 1
     9    3   32 1
    10    3   33 1
    11    4    8 1
    12    4    5 2
    13    5    6 1
    14    5   34 1
    15    6    7 2
    16    6    9 1
    17    7    8 1
    18    9   10 2
    19    9   11 am
    20   11   17 1
    21   11   12 1
    22   12   13 1
    23   12   35 1
    24   12   36 1
    25   13   14 1
    26   13   37 1
    27   13   38 1
    28   14   15 1
    29   14   39 1
    30   14   40 1
    31   15   16 1
    32   15   17 1
    33   15   18 1
    34   17   41 1
    35   17   42 1
    36   18   19 1
    37   18   43 1
    38   18   44 1
    39   19   23 1
    40   19   20 1
    41   20   21 2
    42   20   45 1
    43   21   22 1
    44   21   24 1
    45   22   23 2
    46   24   25 2
    47   24   26 1
@<TRIPOS>MOLECULE
ZINC19404098
   37    38     0     0     0
SMALL
USER_CHARGES
(2R,3aR,7aS)-1-butanoyl-2,3,3a,4,5,6,7,7a-octahydroindole-2-carboxylic acid
@<TRIPOS>ATOM
      1 C1          0.0111    1.0724    2.5063 C.3       1 <0>        -0.1520
      2 C2         -0.7288    1.5792    1.2668 C.3       1 <0>        -0.1029
      3 C3         -0.0127    1.0858    0.0080 C.3       1 <0>        -0.1470
      4 C4         -0.7416    1.5850   -1.2129 C.2       1 <0>         0.5488
      5 O1         -1.7359    2.2682   -1.0884 O.2       1 <0>        -0.5677
      6 N1         -0.2884    1.2723   -2.4431 N.am      1 <0>        -0.5922
      7 C5         -0.8816    1.6712   -3.7091 C.3       1 <0>         0.1410
      8 H1         -1.6650    0.9211   -3.8926 H         1 <0>         0.0704
      9 C6         -1.6192    2.9927   -3.7566 C.3       1 <0>        -0.1254
     10 C7         -2.1762    3.1562   -5.1806 C.3       1 <0>        -0.1126
     11 C8         -1.0645    3.0891   -6.2235 C.3       1 <0>        -0.1193
     12 C9         -0.2343    1.8046   -6.0862 C.3       1 <0>        -0.1167
     13 C10         0.3326    1.7729   -4.6770 C.3       1 <0>        -0.0983
     14 H2          0.9970    2.6485   -4.6341 H         1 <0>         0.0872
     15 C11         1.0841    0.4861   -4.3022 C.3       1 <0>        -0.0934
     16 C12         0.9046    0.4518   -2.7596 C.3       1 <0>         0.0889
     17 H3          1.7756    0.8512   -2.2194 H         1 <0>         0.0786
     18 C13         0.6910   -0.9657   -2.2946 C.2       1 <0>         0.4554
     19 O2         -0.3443   -1.2745   -1.7535 O.co2     1 <0>        -0.6237
     20 O3          1.6508   -1.8852   -2.4816 O.co2     1 <0>        -0.7612
     21 H4         -0.5038    1.4272    3.4113 H         1 <0>         0.0516
     22 H5          1.0431    1.4531    2.4985 H         1 <0>         0.0511
     23 H6          0.0260   -0.0275    2.5003 H         1 <0>         0.0566
     24 H7         -1.7608    1.1985    1.2746 H         1 <0>         0.0662
     25 H8         -0.7437    2.6791    1.2728 H         1 <0>         0.0605
     26 H9          1.0193    1.4666    0.0002 H         1 <0>         0.0781
     27 H10         0.0023   -0.0141    0.0019 H         1 <0>         0.1155
     28 H11        -2.4373    2.9826   -3.0214 H         1 <0>         0.0858
     29 H12        -0.9226    3.8102   -3.5188 H         1 <0>         0.0570
     30 H13        -2.8976    2.3518   -5.3867 H         1 <0>         0.0604
     31 H14        -2.6789    4.1307   -5.2681 H         1 <0>         0.0610
     32 H15        -1.5052    3.1106   -7.2311 H         1 <0>         0.0590
     33 H16        -0.3923    3.9509   -6.0989 H         1 <0>         0.0580
     34 H17        -0.8795    0.9307   -6.2598 H         1 <0>         0.0636
     35 H18         0.5791    1.8128   -6.8267 H         1 <0>         0.0648
     36 H19         0.6195   -0.3713   -4.8111 H         1 <0>         0.0755
     37 H20         2.1356    0.5716   -4.6137 H         1 <0>         0.0772
@<TRIPOS>BOND
     1    1    2 1
     2    1   21 1
     3    1   22 1
     4    1   23 1
     5    2    3 1
     6    2   24 1
     7    2   25 1
     8    3    4 1
     9    3   26 1
    10    3   27 1
    11    4    5 2
    12    4    6 am
    13    6   16 1
    14    6    7 1
    15    7    8 1
    16    7   13 1
    17    7    9 1
    18    9   10 1
    19    9   28 1
    20    9   29 1
    21   10   11 1
    22   10   30 1
    23   10   31 1
    24   11   12 1
    25   11   32 1
    26   11   33 1
    27   12   13 1
    28   12   34 1
    29   12   35 1
    30   13   14 1
    31   13   15 1
    32   15   16 1
    33   15   36 1
    34   15   37 1
    35   16   17 1
    36   16   18 1
    37   18   19 2
    38   18   20 1
@<TRIPOS>MOLECULE
ZINC37460914
   34    35     0     0     0
SMALL
USER_CHARGES

@<TRIPOS>ATOM
      1 C1         -3.3969    5.4284    5.1733 C.3       1 <0>        -0.1222
      2 C2         -2.7031    6.2312    6.2679 C.3       1 <0>        -0.1203
      3 C3         -2.3200    5.2929    7.4248 C.3       1 <0>        -0.1383
      4 C4         -1.0712    4.5097    7.0406 C.3       1 <0>         0.1204
      5 N1         -1.4269    3.5016    6.0320 N.am      1 <0>        -0.6021
      6 C5         -0.9297    3.6488    4.6744 C.3       1 <0>         0.1130
      7 C6         -1.0806    5.1184    4.2595 C.3       1 <0>        -0.1480
      8 C7         -2.5393    5.3954    3.8952 C.3       1 <0>        -0.1139
      9 C8         -2.2052    2.4522    6.3626 C.2       1 <0>         0.5624
     10 O1         -2.6162    2.3357    7.4977 O.2       1 <0>        -0.5341
     11 C9         -2.5649    1.4234    5.3218 C.3       1 <0>        -0.1819
     12 H1         -3.1120    1.8002    4.4577 H         1 <0>         0.1115
     13 C10        -2.8994    0.0123    5.8093 C.3       1 <0>        -0.1367
     14 C11        -1.5761    0.2795    5.0879 C.3       1 <0>        -0.1887
     15 H2         -1.4730   -0.0965    4.0700 H         1 <0>         0.0974
     16 C12        -0.3170    0.2678    5.9160 C.2       1 <0>         0.5145
     17 O2         -0.3799    0.0757    7.1184 O.co2     1 <0>        -0.6791
     18 O3          0.7645    0.4505    5.3836 O.co2     1 <0>        -0.6955
     19 H3         -3.5585    4.4089    5.5235 H         1 <0>         0.0662
     20 H4         -4.3599    5.8865    4.9477 H         1 <0>         0.0514
     21 H5         -1.8038    6.6957    5.8635 H         1 <0>         0.0679
     22 H6         -3.3782    7.0042    6.6351 H         1 <0>         0.0543
     23 H7         -2.1197    5.8815    8.3201 H         1 <0>         0.0653
     24 H8         -3.1391    4.6004    7.6187 H         1 <0>         0.0779
     25 H9         -0.3264    5.1905    6.6284 H         1 <0>         0.0778
     26 H10        -0.6655    4.0149    7.9230 H         1 <0>         0.0687
     27 H11         0.1214    3.3626    4.6354 H         1 <0>         0.0689
     28 H12        -1.5080    3.0161    4.0011 H         1 <0>         0.0808
     29 H13        -0.7840    5.7623    5.0874 H         1 <0>         0.0807
     30 H14        -0.4458    5.3196    3.3965 H         1 <0>         0.0693
     31 H15        -2.9036    4.6088    3.2343 H         1 <0>         0.0602
     32 H16        -2.6096    6.3568    3.3864 H         1 <0>         0.0563
     33 H17        -2.8594   -0.1720    6.8829 H         1 <0>         0.1091
     34 H18        -3.6664   -0.5394    5.2657 H         1 <0>         0.0867
@<TRIPOS>BOND
     1    1    8 1
     2    1    2 1
     3    1   19 1
     4    1   20 1
     5    2    3 1
     6    2   21 1
     7    2   22 1
     8    3    4 1
     9    3   23 1
    10    3   24 1
    11    4    5 1
    12    4   25 1
    13    4   26 1
    14    5    6 1
    15    5    9 am
    16    6    7 1
    17    6   27 1
    18    6   28 1
    19    7    8 1
    20    7   29 1
    21    7   30 1
    22    8   31 1
    23    8   32 1
    24    9   10 2
    25    9   11 1
    26   11   12 1
    27   11   14 1
    28   11   13 1
    29   13   14 1
    30   13   33 1
    31   13   34 1
    32   14   15 1
    33   14   16 1
    34   16   17 2
    35   16   18 1
@<TRIPOS>MOLECULE
ZINC51604478
   39    39     0     0     0
SMALL
USER_CHARGES

@<TRIPOS>ATOM
      1 C1          0.0420    1.5553    0.0186 C.3       1 <0>        -0.1410
      2 C2          0.0274    0.0256   -0.0029 C.3       1 <0>        -0.0707
      3 H1         -0.9987   -0.3328    0.0796 H         1 <0>         0.0802
      4 C3          0.6453   -0.4774   -1.3099 C.3       1 <0>        -0.1330
      5 C4          0.8887   -1.9568   -1.2240 C.2       1 <0>         0.5231
      6 O1          1.0641   -2.5705   -2.2552 O.2       1 <0>        -0.5671
      7 N1          0.9226   -2.6317   -0.0743 N.am      1 <0>        -0.5862
      8 C5          0.6824   -2.0327    1.2325 C.3       1 <0>         0.1578
      9 H2          1.3876   -2.4463    1.9535 H         1 <0>         0.0759
     10 C6          0.8586   -0.5152    1.1667 C.3       1 <0>        -0.1602
     11 H3          1.9104   -0.2762    1.0092 H         1 <0>         0.0653
     12 C7          0.3831    0.1060    2.4547 C.2       1 <0>         0.5104
     13 O2         -0.8038    0.3293    2.6221 O.co2     1 <0>        -0.6846
     14 O3          1.1852    0.3853    3.3294 O.co2     1 <0>        -0.6980
     15 C8         -0.7451   -2.3524    1.6807 C.3       1 <0>        -0.1557
     16 C9          1.2195   -4.0653   -0.1284 C.3       1 <0>         0.1473
     17 H4          1.2122   -4.4762    0.8812 H         1 <0>         0.0793
     18 C10         0.1602   -4.7740   -0.9749 C.3       1 <0>        -0.1704
     19 C11         2.5989   -4.2772   -0.7553 C.3       1 <0>        -0.1151
     20 C12         3.6582   -3.5686    0.0913 C.3       1 <0>        -0.1435
     21 C13         2.9090   -5.7744   -0.8117 C.3       1 <0>        -0.1418
     22 H5          1.0730    1.9086    0.0374 H         1 <0>         0.0451
     23 H6         -0.4563    1.9360   -0.8730 H         1 <0>         0.0435
     24 H7         -0.4803    1.9112    0.9066 H         1 <0>         0.0746
     25 H8         -0.0352   -0.2698   -2.1356 H         1 <0>         0.0905
     26 H9          1.5912    0.0356   -1.4842 H         1 <0>         0.0911
     27 H10        -0.8720   -3.4330    1.7458 H         1 <0>         0.0390
     28 H11        -0.9277   -1.9056    2.6580 H         1 <0>         0.0856
     29 H12        -1.4525   -1.9464    0.9576 H         1 <0>         0.0572
     30 H13         0.1674   -4.3631   -1.9845 H         1 <0>         0.0833
     31 H14         0.3811   -5.8406   -1.0151 H         1 <0>         0.0586
     32 H15        -0.8225   -4.6230   -0.5283 H         1 <0>         0.0502
     33 H16         2.6062   -3.8664   -1.7649 H         1 <0>         0.0953
     34 H17         4.6410   -3.7196   -0.3554 H         1 <0>         0.0494
     35 H18         3.4374   -2.5020    0.1314 H         1 <0>         0.0550
     36 H19         3.6510   -3.9794    1.1008 H         1 <0>         0.0504
     37 H20         2.1543   -6.2793   -1.4148 H         1 <0>         0.0567
     38 H21         3.8917   -5.9254   -1.2584 H         1 <0>         0.0519
     39 H22         2.9017   -6.1853    0.1979 H         1 <0>         0.0504
@<TRIPOS>BOND
     1    1    2 1
     2    1   22 1
     3    1   23 1
     4    1   24 1
     5    2    3 1
     6    2   10 1
     7    2    4 1
     8    4    5 1
     9    4   25 1
    10    4   26 1
    11    5    6 2
    12    5    7 am
    13    7    8 1
    14    7   16 1
    15    8    9 1
    16    8   10 1
    17    8   15 1
    18   10   11 1
    19   10   12 1
    20   12   13 2
    21   12   14 1
    22   15   27 1
    23   15   28 1
    24   15   29 1
    25   16   17 1
    26   16   18 1
    27   16   19 1
    28   18   30 1
    29   18   31 1
    30   18   32 1
    31   19   20 1
    32   19   21 1
    33   19   33 1
    34   20   34 1
    35   20   35 1
    36   20   36 1
    37   21   37 1
    38   21   38 1
    39   21   39 1
@<TRIPOS>MOLECULE
ZINC62757316
   30    31     0     0     0
SMALL
USER_CHARGES

@<TRIPOS>ATOM
      1 C1         -0.0163    1.3489    0.0095 C.2       1 <0>        -0.2842
      2 C2          1.3085    1.7974   -0.0008 C.2       1 <0>         0.0280
      3 N1          2.0941    0.7512   -0.0139 N.2       1 <0>        -0.2566
      4 N2          1.2927   -0.3978   -0.0124 N.pl3     1 <0>        -0.3044
      5 C3          0.0021   -0.0041    0.0020 C.2       1 <0>         0.0615
      6 C4          1.7713   -1.7824   -0.0249 C.3       1 <0>         0.1820
      7 H1          2.7740   -1.8124    0.4015 H         1 <0>         0.0824
      8 C5          0.8340   -2.6417    0.8450 C.3       1 <0>        -0.1258
      9 C6          0.9767   -4.1503    0.5669 C.3       1 <0>        -0.1092
     10 C7          2.4114   -4.5714    0.3984 C.3       1 <0>        -0.1210
     11 C8          2.7539   -4.5532   -1.1054 C.3       1 <0>        -0.1135
     12 C9          3.0424   -3.2123   -1.5925 C.3       1 <0>        -0.1009
     13 C10         1.8334   -2.2633   -1.4493 C.3       1 <0>        -0.1693
     14 H2          0.9156   -2.7971   -1.6959 H         1 <0>         0.0681
     15 C11         2.0027   -1.0857   -2.3743 C.2       1 <0>         0.4921
     16 O1          2.5992   -1.2198   -3.4291 O.co2     1 <0>        -0.7038
     17 O2          1.5432    0.0013   -2.0677 O.co2     1 <0>        -0.6654
     18 H3         -0.8980    1.9724    0.0252 H         1 <0>         0.1229
     19 H4          1.6279    2.8291    0.0017 H         1 <0>         0.1589
     20 H5         -0.8615   -0.6526    0.0071 H         1 <0>         0.1461
     21 H6          1.0594   -2.4549    1.8950 H         1 <0>         0.0627
     22 H7         -0.1966   -2.3444    0.6507 H         1 <0>         0.0673
     23 H8          0.5417   -4.7048    1.3984 H         1 <0>         0.0597
     24 H9          0.4282   -4.3946   -0.3428 H         1 <0>         0.0639
     25 H10         3.0618   -3.8772    0.9305 H         1 <0>         0.0637
     26 H11         2.5460   -5.5788    0.7923 H         1 <0>         0.0593
     27 H12         3.6247   -5.1860   -1.2769 H         1 <0>         0.0532
     28 H13         1.9102   -4.9578   -1.6645 H         1 <0>         0.0564
     29 H14         3.8812   -2.8047   -1.0282 H         1 <0>         0.0486
     30 H15         3.3224   -3.2715   -2.6442 H         1 <0>         0.0773
@<TRIPOS>BOND
     1    1    5 2
     2    1    2 1
     3    1   18 1
     4    2    3 2
     5    2   19 1
     6    3    4 1
     7    4    5 1
     8    4    6 1
     9    5   20 1
    10    6    7 1
    11    6   13 1
    12    6    8 1
    13    8    9 1
    14    8   21 1
    15    8   22 1
    16    9   10 1
    17    9   23 1
    18    9   24 1
    19   10   11 1
    20   10   25 1
    21   10   26 1
    22   11   12 1
    23   11   27 1
    24   11   28 1
    25   12   13 1
    26   12   29 1
    27   12   30 1
    28   13   14 1
    29   13   15 1
    30   15   16 2
    31   15   17 1
@<TRIPOS>MOLECULE
ZINC63158317
   27    29     0     0     0
SMALL
USER_CHARGES

@<TRIPOS>ATOM
      1 C1         -0.0166    1.3751    0.0096 C.ar      1 <0>        -0.1235
      2 C2          1.1740    2.0780    0.0020 C.ar      1 <0>        -0.1247
      3 C3          2.3723    1.3951   -0.0161 C.ar      1 <0>        -0.0989
      4 C4          2.3932    0.0062   -0.0252 C.ar      1 <0>        -0.0570
      5 C5          1.2079   -0.6937   -0.0125 C.ar      1 <0>        -0.0730
      6 C6          0.0021   -0.0041    0.0020 C.ar      1 <0>        -0.1274
      7 C7          1.1552   -2.1990   -0.0052 C.3       1 <0>        -0.0787
      8 C8          2.4928   -2.7856   -0.4516 C.3       1 <0>        -0.1165
      9 C9          3.6072   -2.1349    0.3764 C.3       1 <0>        -0.1109
     10 C10         3.7365   -0.6749   -0.0530 C.3       1 <0>         0.0431
     11 H1          4.1404   -0.6321   -1.0645 H         1 <0>         0.1043
     12 C11         4.6747    0.0381    0.8864 C.2       1 <0>         0.2643
     13 N1          5.8234    0.6257    0.5379 N.2       1 <0>        -0.6539
     14 C12         6.3955    1.1530    1.5942 C.2       1 <0>         0.5088
     15 O1          7.5677    1.8239    1.6094 O.3       1 <0>        -0.6560
     16 O2          5.6128    0.9102    2.6566 O.3       1 <0>        -0.1913
     17 N2          4.4939    0.1858    2.1677 N.2       1 <0>        -0.4126
     18 H2         -0.9580    1.9042    0.0259 H         1 <0>         0.1173
     19 H3          1.1658    3.1579    0.0099 H         1 <0>         0.1184
     20 H4          3.3019    1.9448   -0.0236 H         1 <0>         0.1205
     21 H5         -0.9284   -0.5523    0.0071 H         1 <0>         0.1174
     22 H6          0.9293   -2.5458    1.0032 H         1 <0>         0.0754
     23 H7          0.3711   -2.5345   -0.6840 H         1 <0>         0.0719
     24 H8          2.4944   -3.8631   -0.2867 H         1 <0>         0.0694
     25 H9          2.6510   -2.5755   -1.5094 H         1 <0>         0.0674
     26 H10         3.3546   -2.1851    1.4355 H         1 <0>         0.0745
     27 H11         4.5484   -2.6548    0.1979 H         1 <0>         0.0716
@<TRIPOS>BOND
     1    1    6 ar
     2    1    2 ar
     3    1   18 1
     4    2    3 ar
     5    2   19 1
     6    3    4 ar
     7    3   20 1
     8    4   10 1
     9    4    5 ar
    10    5    6 ar
    11    5    7 1
    12    6   21 1
    13    7    8 1
    14    7   22 1
    15    7   23 1
    16    8    9 1
    17    8   24 1
    18    8   25 1
    19    9   10 1
    20    9   26 1
    21    9   27 1
    22   10   11 1
    23   10   12 1
    24   12   17 2
    25   12   13 1
    26   13   14 2
    27   14   15 1
    28   14   16 1
    29   16   17 1
@<TRIPOS>MOLECULE
ZINC05909162
   30    33     0     0     0
SMALL
USER_CHARGES

@<TRIPOS>ATOM
      1 C1         -0.0187    1.5258    0.0104 C.3       1 <0>        -0.1653
      2 C2          0.0021   -0.0041    0.0020 C.3       1 <0>         0.1131
      3 N1          0.7106   -0.4894    1.1889 N.am      1 <0>        -0.5086
      4 C3          2.0388   -0.6852    1.1284 C.2       1 <0>         0.5859
      5 O1          2.6445   -0.4611    0.0962 O.2       1 <0>        -0.5233
      6 C4          2.7611   -1.1745    2.3243 C.2       1 <0>        -0.2402
      7 C5          4.2008   -1.4498    2.4551 C.2       1 <0>        -0.0637
      8 C6          4.5819   -1.8884    3.6655 C.2       1 <0>        -0.2658
      9 S1          3.0830   -1.9368    4.6148 S.3       1 <0>         0.3713
     10 C7          1.9998   -1.4041    3.4604 C.2       1 <0>         0.0513
     11 N2          0.6370   -1.1892    3.4749 N.pl3     1 <0>        -0.4303
     12 C8         -0.0011   -0.7316    2.3520 C.2       1 <0>         0.4188
     13 N3         -1.2770   -0.6087    2.6338 N.2       1 <0>        -0.3278
     14 N4         -1.4663   -0.9891    3.9680 N.2       1 <0>        -0.3281
     15 C9         -0.3039   -1.3440    4.4584 C.2       1 <0>         0.3964
     16 S2         -0.0011   -1.9036    6.1015 S.3       1 <0>        -0.7424
     17 C10         6.0620   -2.1532    3.7270 C.3       1 <0>        -0.0243
     18 C11         6.5061   -2.2269    2.2491 C.3       1 <0>        -0.1174
     19 C12         5.4307   -1.3671    1.5539 C.3       1 <0>        -0.0561
     20 H1          1.0039    1.9031    0.0027 H         1 <0>         0.0584
     21 H2         -0.5459    1.8868   -0.8726 H         1 <0>         0.0735
     22 H3         -0.5289    1.8773    0.9072 H         1 <0>         0.0623
     23 H4         -1.0205   -0.3814    0.0098 H         1 <0>         0.0948
     24 H5          0.5123   -0.3556   -0.8948 H         1 <0>         0.0959
     25 H6          6.5734   -1.3371    4.2374 H         1 <0>         0.0822
     26 H7          6.2582   -3.0999    4.2306 H         1 <0>         0.0779
     27 H8          7.4974   -1.7930    2.1175 H         1 <0>         0.0807
     28 H9          6.4801   -3.2538    1.8847 H         1 <0>         0.0747
     29 H10         5.2037   -1.7715    0.5675 H         1 <0>         0.0767
     30 H11         5.7688   -0.3342    1.4706 H         1 <0>         0.0793
@<TRIPOS>BOND
     1    1    2 1
     2    1   20 1
     3    1   21 1
     4    1   22 1
     5    2    3 1
     6    2   23 1
     7    2   24 1
     8    3   12 1
     9    3    4 am
    10    4    5 2
    11    4    6 1
    12    6   10 2
    13    6    7 1
    14    7   19 1
    15    7    8 2
    16    8    9 1
    17    8   17 1
    18    9   10 1
    19   10   11 1
    20   11   15 1
    21   11   12 1
    22   12   13 2
    23   13   14 1
    24   14   15 2
    25   15   16 1
    26   17   18 1
    27   17   25 1
    28   17   26 1
    29   18   19 1
    30   18   27 1
    31   18   28 1
    32   19   29 1
    33   19   30 1
@<TRIPOS>MOLECULE
ZINC48868957
   36    37     0     0     0
SMALL
USER_CHARGES

@<TRIPOS>ATOM
      1 C1         -0.0187    1.5258    0.0104 C.3       1 <0>        -0.1461
      2 C2          0.0021   -0.0041    0.0020 C.3       1 <0>        -0.0913
      3 H1         -1.0209   -0.3803    0.0098 H         1 <0>         0.0710
      4 C3          0.7159   -0.4965   -1.2601 C.3       1 <0>        -0.1070
      5 C4          0.4956   -2.0095   -1.3932 C.3       1 <0>        -0.0311
      6 C5          0.7918   -2.6509   -0.0696 C.2       1 <0>        -0.2501
      7 C6          0.9099   -2.0217    1.1329 C.2       1 <0>        -0.1372
      8 C7          1.1912   -2.8241    2.2315 C.2       1 <0>        -0.1183
      9 C8          1.3223   -4.1779    1.9972 C.2       1 <0>        -0.1310
     10 S1          1.0446   -4.2725    0.2385 S.3       1 <0>         0.2149
     11 C9          1.6144   -5.2593    2.9490 C.2       1 <0>         0.5632
     12 O1          1.7948   -4.9765    4.2600 O.3       1 <0>        -0.7026
     13 N1          1.6998   -6.4915    2.5299 N.2       1 <0>        -1.0762
     14 S2          2.0290   -7.7099    3.6021 S.o2      1 <0>         2.7614
     15 O2          3.3508   -7.4889    4.0746 O.2       1 <0>        -1.0219
     16 O3          0.9118   -7.7945    4.4761 O.2       1 <0>        -1.0226
     17 N2          2.0644   -9.1238    2.7409 N.pl3     1 <0>        -1.0082
     18 C10         3.3225   -9.5936    2.1554 C.3       1 <0>         0.1058
     19 C11         0.8376   -9.9049    2.5644 C.3       1 <0>         0.0982
     20 C12         0.7387   -0.5091    1.2430 C.3       1 <0>        -0.0491
     21 H2          1.0039    1.9031    0.0027 H         1 <0>         0.0538
     22 H3         -0.5459    1.8868   -0.8726 H         1 <0>         0.0529
     23 H4         -0.5289    1.8773    0.9072 H         1 <0>         0.0540
     24 H5          0.3058    0.0108   -2.1334 H         1 <0>         0.0663
     25 H6          1.7829   -0.2880   -1.1813 H         1 <0>         0.0653
     26 H7         -0.5397   -2.2059   -1.6720 H         1 <0>         0.0759
     27 H8          1.1654   -2.4118   -2.1532 H         1 <0>         0.0753
     28 H9          1.3024   -2.4083    3.2220 H         1 <0>         0.1388
     29 H10         3.8415  -10.2300    2.8722 H         1 <0>         0.0453
     30 H11         3.1117  -10.1629    1.2501 H         1 <0>         0.0616
     31 H12         3.9502   -8.7375    1.9083 H         1 <0>         0.0684
     32 H13         0.0112   -9.4018    3.0664 H         1 <0>         0.0802
     33 H14         0.6152   -9.9969    1.5013 H         1 <0>         0.0519
     34 H15         0.9738  -10.8973    2.9943 H         1 <0>         0.0496
     35 H16         1.7174   -0.0334    1.3057 H         1 <0>         0.0694
     36 H17         0.1576   -0.2724    2.1343 H         1 <0>         0.0695
@<TRIPOS>BOND
     1    1    2 1
     2    1   21 1
     3    1   22 1
     4    1   23 1
     5    2    3 1
     6    2   20 1
     7    2    4 1
     8    4    5 1
     9    4   24 1
    10    4   25 1
    11    5    6 1
    12    5   26 1
    13    5   27 1
    14    6   10 1
    15    6    7 2
    16    7    8 1
    17    7   20 1
    18    8    9 2
    19    8   28 1
    20    9   10 1
    21    9   11 1
    22   11   12 1
    23   11   13 2
    24   13   14 1
    25   14   15 2
    26   14   16 2
    27   14   17 1
    28   17   18 1
    29   17   19 1
    30   18   29 1
    31   18   30 1
    32   18   31 1
    33   19   32 1
    34   19   33 1
    35   19   34 1
    36   20   35 1
    37   20   36 1
@<TRIPOS>MOLECULE
ZINC57332300
   43    45     0     0     0
SMALL
USER_CHARGES

@<TRIPOS>ATOM
      1 C1         -0.0189    1.5258    0.0103 C.3       1 <0>        -0.1470
      2 C2          0.0020   -0.0041    0.0020 C.3       1 <0>        -0.0906
      3 C3         -1.4339   -0.5336    0.0110 C.3       1 <0>        -0.1315
      4 C4         -1.4095   -2.0647   -0.0323 C.3       1 <0>         0.1224
      5 N1         -0.5781   -2.5560    1.0751 N.pl3     1 <0>        -0.6326
      6 C5          0.7912   -2.0415    1.2126 C.3       1 <0>         0.1231
      7 C6          0.7421   -0.5106    1.2420 C.3       1 <0>        -0.1313
      8 C7         -1.0810   -3.4953    1.9815 C.ar      1 <0>         0.1879
      9 C8         -2.4116   -3.8870    1.9094 C.ar      1 <0>        -0.1709
     10 C9         -2.9077   -4.8140    2.8041 C.ar      1 <0>        -0.1110
     11 C10        -2.0767   -5.3545    3.7763 C.ar      1 <0>         0.1199
     12 C11        -0.7465   -4.9628    3.8489 C.ar      1 <0>        -0.1087
     13 C12        -0.2483   -4.0407    2.9501 C.ar      1 <0>        -0.1710
     14 N2         -2.5806   -6.2953    4.6847 N.am      1 <0>        -0.5544
     15 C13        -1.8278   -6.8311    5.8250 C.3       1 <0>         0.1127
     16 C14        -2.8858   -7.4609    6.7580 C.3       1 <0>        -0.1674
     17 H1         -3.2199   -6.7446    7.5086 H         1 <0>         0.0832
     18 C15        -4.0237   -7.7933    5.7652 C.3       1 <0>        -0.1304
     19 C16        -3.8175   -6.8184    4.6270 C.2       1 <0>         0.5208
     20 O1         -4.6467   -6.5498    3.7834 O.2       1 <0>        -0.5338
     21 C17        -2.3545   -8.7118    7.4090 C.2       1 <0>         0.5057
     22 O2         -2.6057   -8.9439    8.5793 O.co2     1 <0>        -0.6891
     23 O3         -1.6733   -9.4919    6.7655 O.co2     1 <0>        -0.6873
     24 H2          1.0037    1.9031    0.0026 H         1 <0>         0.0537
     25 H3         -0.5460    1.8868   -0.8728 H         1 <0>         0.0536
     26 H4         -0.5292    1.8773    0.9070 H         1 <0>         0.0538
     27 H5          0.5127   -0.3554   -0.8946 H         1 <0>         0.0688
     28 H6         -1.9377   -0.2034    0.9194 H         1 <0>         0.0664
     29 H7         -1.9673   -0.1535   -0.8602 H         1 <0>         0.0697
     30 H8         -2.4238   -2.4495    0.0736 H         1 <0>         0.0828
     31 H9         -0.9877   -2.3968   -0.9810 H         1 <0>         0.0569
     32 H10         1.2289   -2.4109    2.1400 H         1 <0>         0.0823
     33 H11         1.3924   -2.3716    0.3654 H         1 <0>         0.0567
     34 H12         1.7574   -0.1141    1.2469 H         1 <0>         0.0699
     35 H13         0.2178   -0.1806    2.1388 H         1 <0>         0.0663
     36 H14        -3.0582   -3.4661    1.1536 H         1 <0>         0.1227
     37 H15        -3.9424   -5.1186    2.7480 H         1 <0>         0.1540
     38 H16        -0.1005   -5.3828    4.6056 H         1 <0>         0.1262
     39 H17         0.7876   -3.7399    3.0033 H         1 <0>         0.1235
     40 H18        -1.1223   -7.5905    5.4879 H         1 <0>         0.0939
     41 H19        -1.3010   -6.0279    6.3401 H         1 <0>         0.0732
     42 H20        -3.9347   -8.8211    5.4131 H         1 <0>         0.1091
     43 H21        -4.9958   -7.6315    6.2310 H         1 <0>         0.0978
@<TRIPOS>BOND
     1    1    2 1
     2    1   24 1
     3    1   25 1
     4    1   26 1
     5    2    7 1
     6    2    3 1
     7    2   27 1
     8    3    4 1
     9    3   28 1
    10    3   29 1
    11    4    5 1
    12    4   30 1
    13    4   31 1
    14    5    6 1
    15    5    8 1
    16    6    7 1
    17    6   32 1
    18    6   33 1
    19    7   34 1
    20    7   35 1
    21    8   13 ar
    22    8    9 ar
    23    9   10 ar
    24    9   36 1
    25   10   11 ar
    26   10   37 1
    27   11   12 ar
    28   11   14 1
    29   12   13 ar
    30   12   38 1
    31   13   39 1
    32   14   19 am
    33   14   15 1
    34   15   16 1
    35   15   40 1
    36   15   41 1
    37   16   17 1
    38   16   18 1
    39   16   21 1
    40   18   19 1
    41   18   42 1
    42   18   43 1
    43   19   20 2
    44   21   22 2
    45   21   23 1
@<TRIPOS>MOLECULE
ZINC62326646
   28    29     0     0     0
SMALL
USER_CHARGES

@<TRIPOS>ATOM
      1 C1         -0.0187    1.5258    0.0104 C.3       1 <0>        -0.1471
      2 C2          0.0021   -0.0041    0.0020 C.3       1 <0>        -0.0719
      3 C3          0.7074   -0.4901   -1.2379 C.ar      1 <0>        -0.1664
      4 C4         -0.0110   -0.7185   -2.3973 C.ar      1 <0>        -0.0529
      5 C5          0.6282   -1.1651   -3.5368 C.ar      1 <0>        -0.1556
      6 C6          2.0002   -1.3861   -3.5206 C.ar      1 <0>         0.2693
      7 C7          2.7149   -1.1516   -2.3512 C.ar      1 <0>        -0.7603
      8 C8          2.0751   -0.7023   -1.2176 C.ar      1 <0>         0.0091
      9 S1          4.4563   -1.4319   -2.3558 S.o2      1 <0>         2.6376
     10 O1          5.0641   -0.2455   -1.8634 O.2       1 <0>        -0.9923
     11 O2          4.6686   -2.7043   -1.7599 O.2       1 <0>        -0.9977
     12 N1          4.8910   -1.5661   -3.9503 N.2       1 <0>        -1.0381
     13 C9          3.9976   -1.7405   -4.8705 C.2       1 <0>         0.4635
     14 N2          2.6555   -1.8406   -4.6619 N.2       1 <0>        -0.6868
     15 S2          4.5661   -1.8586   -6.5341 S.3       1 <0>        -0.0106
     16 C10         6.3662   -1.6820   -6.3964 C.3       1 <0>        -0.0222
     17 C11         6.9711   -1.7638   -7.7358 C.1       1 <0>         0.2312
     18 N3          7.4380   -1.8270   -8.7695 N.1       1 <0>        -0.4249
     19 H1          1.0039    1.9031    0.0027 H         1 <0>         0.0550
     20 H2         -0.5459    1.8868   -0.8726 H         1 <0>         0.0535
     21 H3         -0.5289    1.8773    0.9072 H         1 <0>         0.0508
     22 H4          0.5293   -0.3651    0.8851 H         1 <0>         0.0642
     23 H5         -1.0205   -0.3814    0.0098 H         1 <0>         0.0645
     24 H6         -1.0772   -0.5471   -2.4114 H         1 <0>         0.1162
     25 H7          0.0626   -1.3428   -4.4395 H         1 <0>         0.1237
     26 H8          2.6382   -0.5202   -0.3141 H         1 <0>         0.1124
     27 H9          6.6034   -0.7168   -5.9489 H         1 <0>         0.1382
     28 H10         6.7627   -2.4805   -5.7692 H         1 <0>         0.1376
@<TRIPOS>BOND
     1    1    2 1
     2    1   19 1
     3    1   20 1
     4    1   21 1
     5    2    3 1
     6    2   22 1
     7    2   23 1
     8    3    8 ar
     9    3    4 ar
    10    4    5 ar
    11    4   24 1
    12    5    6 ar
    13    5   25 1
    14    6   14 1
    15    6    7 ar
    16    7    8 ar
    17    7    9 1
    18    8   26 1
    19    9   10 2
    20    9   11 2
    21    9   12 1
    22   12   13 2
    23   13   14 1
    24   13   15 1
    25   15   16 1
    26   16   17 1
    27   16   27 1
    28   16   28 1
    29   17   18 3
@<TRIPOS>MOLECULE
ZINC64403931
   33    35     0     0     0
SMALL
USER_CHARGES

@<TRIPOS>ATOM
      1 C1         -0.0184    1.5028    0.0103 C.3       1 <0>        -0.0750
      2 C2          0.0021   -0.0041    0.0020 C.2       1 <0>         0.2850
      3 N1         -1.0739   -0.7340    0.0032 N.2       1 <0>        -0.4974
      4 C3         -0.6287   -2.1285    0.0456 C.3       1 <0>         0.1470
      5 H1         -0.9085   -2.6039    0.9857 H         1 <0>         0.1541
      6 C4          0.8857   -1.9895   -0.0788 C.2       1 <0>         0.1928
      7 N2          1.1345   -0.7282   -0.0132 N.2       1 <0>        -0.4778
      8 C5          1.7216   -3.1666   -0.3530 C.2       1 <0>        -0.0586
      9 C6          1.0785   -4.1065   -1.1445 C.2       1 <0>        -0.1284
     10 C7         -0.2765   -3.8059   -1.6383 C.2       1 <0>         0.2399
     11 N3         -1.0802   -2.9165   -1.0993 N.2       1 <0>        -0.4715
     12 C8         -0.7743   -4.5653   -2.8066 C.ar      1 <0>        -0.0586
     13 C9          0.0314   -5.5376   -3.4037 C.ar      1 <0>        -0.0662
     14 C10        -0.4338   -6.2428   -4.4904 C.ar      1 <0>        -0.1042
     15 C11        -1.7064   -5.9873   -4.9948 C.ar      1 <0>        -0.0712
     16 C12        -2.5114   -5.0184   -4.4010 C.ar      1 <0>        -0.1438
     17 C13        -2.0528   -4.3151   -3.3103 C.ar      1 <0>        -0.0515
     18 S1         -2.2988   -6.8908   -6.3867 S.3       1 <0>        -0.1192
     19 C14        -3.9618   -6.2230   -6.6680 C.3       1 <0>        -0.1447
     20 C15         3.0960   -3.3307    0.1583 C.2       1 <0>         0.5330
     21 O1          3.7325   -4.3395   -0.1117 O.co2     1 <0>        -0.6690
     22 O2          3.5987   -2.4579    0.8520 O.co2     1 <0>        -0.6543
     23 H2          1.0042    1.8801    0.0026 H         1 <0>         0.0879
     24 H3         -0.5455    1.8639   -0.8728 H         1 <0>         0.0847
     25 H4         -0.5286    1.8543    0.9071 H         1 <0>         0.0860
     26 H5          1.5615   -5.0397   -1.3941 H         1 <0>         0.1615
     27 H6          1.0187   -5.7356   -3.0133 H         1 <0>         0.1440
     28 H7          0.1888   -6.9947   -4.9525 H         1 <0>         0.1343
     29 H8         -3.4981   -4.8218   -4.7939 H         1 <0>         0.1251
     30 H9         -2.6793   -3.5671   -2.8472 H         1 <0>         0.1395
     31 H10        -4.4160   -6.7266   -7.5213 H         1 <0>         0.1078
     32 H11        -4.5739   -6.3870   -5.7812 H         1 <0>         0.0844
     33 H12        -3.8946   -5.1541   -6.8706 H         1 <0>         0.0843
@<TRIPOS>BOND
     1    1    2 1
     2    1   23 1
     3    1   24 1
     4    1   25 1
     5    2    7 1
     6    2    3 2
     7    3    4 1
     8    4    5 1
     9    4   11 1
    10    4    6 1
    11    6    7 2
    12    6    8 1
    13    8    9 2
    14    8   20 1
    15    9   10 1
    16    9   26 1
    17   10   11 2
    18   10   12 1
    19   12   17 ar
    20   12   13 ar
    21   13   14 ar
    22   13   27 1
    23   14   15 ar
    24   14   28 1
    25   15   16 ar
    26   15   18 1
    27   16   17 ar
    28   16   29 1
    29   17   30 1
    30   18   19 1
    31   19   31 1
    32   19   32 1
    33   19   33 1
    34   20   21 2
    35   20   22 1
@<TRIPOS>MOLECULE
ZINC20026318
   28    29     0     0     0
SMALL
USER_CHARGES
1-cyclohexylhexahydropyrimidine-2,4,6-trione
@<TRIPOS>ATOM
      1 C1         -0.7288    1.5792    1.2668 C.3       1 <0>        -0.1180
      2 C2         -0.0127    1.0858    0.0080 C.3       1 <0>        -0.1120
      3 C3         -0.7527    1.5927   -1.2315 C.3       1 <0>        -0.1343
      4 C4         -0.7734    3.1225   -1.2231 C.3       1 <0>         0.1393
      5 C5         -1.4896    3.6159    0.0357 C.3       1 <0>        -0.1344
      6 C6         -0.7496    3.1091    1.2752 C.3       1 <0>        -0.1122
      7 N1         -1.4820    3.6078   -2.4100 N.am      1 <0>        -0.5685
      8 C7         -0.8259    4.3963   -3.2875 C.2       1 <0>         0.5120
      9 O1          0.3326    4.7065   -3.1097 O.3       1 <0>        -0.5675
     10 C8         -1.5918    4.8796   -4.5045 C.2       1 <0>        -0.5238
     11 C9         -3.0343    4.4228   -4.6138 C.2       1 <0>         0.5143
     12 O2         -3.7297    4.7551   -5.5496 O.2       1 <0>        -0.5725
     13 N2         -3.5145    3.6321   -3.6307 N.am      1 <0>        -0.6916
     14 C10        -2.7584    3.2518   -2.5946 C.2       1 <0>         0.7128
     15 O3         -3.2698    2.5353   -1.7573 O.2       1 <0>        -0.5921
     16 H1         -0.1967    1.2149    2.1580 H         1 <0>         0.0569
     17 H2         -1.7608    1.1984    1.2747 H         1 <0>         0.0638
     18 H3          1.0193    1.4665    0.0002 H         1 <0>         0.0593
     19 H4          0.0022   -0.0141    0.0019 H         1 <0>         0.0600
     20 H5         -0.2379    1.2379   -2.1365 H         1 <0>         0.0541
     21 H6         -1.7847    1.2120   -1.2237 H         1 <0>         0.0911
     22 H7          0.2496    3.5240   -1.2694 H         1 <0>         0.1016
     23 H8         -1.5046    4.7158    0.0417 H         1 <0>         0.0575
     24 H9         -2.5216    3.2351    0.0435 H         1 <0>         0.0901
     25 H10        -1.2645    3.4638    2.1802 H         1 <0>         0.0606
     26 H11         0.2824    3.4899    1.2674 H         1 <0>         0.0595
     27 H12        -1.0630    4.5398   -5.3950 H         1 <0>         0.0750
     28 H13        -4.5563    3.2809   -3.6668 H         1 <0>         0.4188
@<TRIPOS>BOND
     1    1    6 1
     2    1    2 1
     3    1   16 1
     4    1   17 1
     5    2    3 1
     6    2   18 1
     7    2   19 1
     8    3    4 1
     9    3   20 1
    10    3   21 1
    11    4    5 1
    12    4    7 1
    13    4   22 1
    14    5    6 1
    15    5   23 1
    16    5   24 1
    17    6   25 1
    18    6   26 1
    19    7   14 am
    20    7    8 1
    21    8    9 1
    22    8   10 2
    23   10   11 1
    24   10   27 1
    25   11   12 2
    26   11   13 am
    27   13   14 am
    28   13   28 1
    29   14   15 2
@<TRIPOS>MOLECULE
ZINC38575717
   20    21     0     0     0
SMALL
USER_CHARGES

@<TRIPOS>ATOM
      1 C1         -0.0165    1.3641    0.0095 C.2       1 <0>        -0.0529
      2 C2          1.2679    1.7771   -0.0005 C.2       1 <0>        -0.0280
      3 N1          2.0582    0.6985   -0.0138 N.2       1 <0>        -0.4777
      4 C3          1.3128   -0.3853   -0.0125 C.2       1 <0>         0.2928
      5 N2          0.0021   -0.0041    0.0020 N.pl3     1 <0>        -0.5587
      6 H1         -0.7697   -0.5916    0.0062 H         1 <0>         0.4243
      7 C4          1.8087   -1.7755   -0.0255 C.2       1 <0>        -0.0716
      8 C5          3.0821   -2.1765   -0.0347 C.2       1 <0>        -0.1212
      9 C6          3.3918   -3.6389   -0.0331 C.3       1 <0>        -0.0856
     10 C7          2.1567   -4.4659   -0.4753 C.3       1 <0>        -0.0970
     11 H2          2.1725   -4.6649   -1.5469 H         1 <0>         0.0978
     12 S1          0.8306   -3.2670   -0.0242 S.3       1 <0>        -0.1591
     13 C8          2.0355   -5.7426    0.3162 C.2       1 <0>         0.5124
     14 O1          1.3209   -5.7824    1.3033 O.co2     1 <0>        -0.6641
     15 O2          2.6519   -6.7357   -0.0306 O.co2     1 <0>        -0.6810
     16 H3         -0.8934    1.9942    0.0253 H         1 <0>         0.1789
     17 H4          1.6011    2.8044    0.0013 H         1 <0>         0.1719
     18 H5          3.8816   -1.4504   -0.0436 H         1 <0>         0.1348
     19 H6          4.2166   -3.8314   -0.7192 H         1 <0>         0.0885
     20 H7          3.6853   -3.9421    0.9719 H         1 <0>         0.0956
@<TRIPOS>BOND
     1    1    5 1
     2    1    2 2
     3    1   16 1
     4    2    3 1
     5    2   17 1
     6    3    4 2
     7    4    5 1
     8    4    7 1
     9    5    6 1
    10    7   12 1
    11    7    8 2
    12    8    9 1
    13    8   18 1
    14    9   10 1
    15    9   19 1
    16    9   20 1
    17   10   11 1
    18   10   12 1
    19   10   13 1
    20   13   14 2
    21   13   15 1
@<TRIPOS>MOLECULE
ZINC50290897
   28    29     0     0     0
SMALL
USER_CHARGES

@<TRIPOS>ATOM
      1 C1         -0.0187    1.5258    0.0104 C.3       1 <0>        -0.1575
      2 C2          0.0021   -0.0041    0.0020 C.3       1 <0>         0.1726
      3 H1         -1.0205   -0.3814    0.0098 H         1 <0>         0.0821
      4 C3          0.7421   -0.5109    1.2415 C.3       1 <0>        -0.1576
      5 C4          0.0380   -1.5594    2.1051 C.3       1 <0>        -0.1733
      6 C5          0.1779   -0.1218    2.6095 C.3       1 <0>        -0.1744
      7 N1          0.6878   -0.4765   -1.2033 N.am      1 <0>        -0.7065
      8 C6          0.0062   -0.6081   -2.3585 C.2       1 <0>         0.5762
      9 O1         -1.1748   -0.3355   -2.4003 O.2       1 <0>        -0.5719
     10 C7          0.7116   -1.0941   -3.5984 C.3       1 <0>        -0.2290
     11 C8          0.9058   -0.0930   -4.7390 C.3       1 <0>        -0.1386
     12 C9         -0.1170   -1.2223   -4.8782 C.3       1 <0>        -0.1339
     13 C10         1.8013   -2.1098   -3.3704 C.2       1 <0>         0.5276
     14 O2          1.7723   -2.8235   -2.3823 O.co2     1 <0>        -0.6816
     15 O3          2.7118   -2.2178   -4.1739 O.co2     1 <0>        -0.6838
     16 H2          1.0039    1.9031    0.0027 H         1 <0>         0.0559
     17 H3         -0.5459    1.8868   -0.8726 H         1 <0>         0.0587
     18 H4         -0.5289    1.8773    0.9072 H         1 <0>         0.0607
     19 H5          1.8255   -0.5824    1.1458 H         1 <0>         0.1089
     20 H6         -0.9524   -1.8882    1.7902 H         1 <0>         0.0944
     21 H7          0.6582   -2.3211    2.5776 H         1 <0>         0.0944
     22 H8          0.8902    0.0624    3.4137 H         1 <0>         0.0935
     23 H9         -0.7204    0.4953    2.6263 H         1 <0>         0.0938
     24 H10         1.6324   -0.6946   -1.1699 H         1 <0>         0.4077
     25 H11         0.5234    0.9171   -4.5926 H         1 <0>         0.0838
     26 H12         1.8220   -0.1688   -5.3246 H         1 <0>         0.1068
     27 H13         0.1263   -2.0410   -5.5554 H         1 <0>         0.0954
     28 H14        -1.1724   -0.9551   -4.8234 H         1 <0>         0.0959
@<TRIPOS>BOND
     1    1    2 1
     2    1   16 1
     3    1   17 1
     4    1   18 1
     5    2    3 1
     6    2    4 1
     7    2    7 1
     8    4    6 1
     9    4    5 1
    10    4   19 1
    11    5    6 1
    12    5   20 1
    13    5   21 1
    14    6   22 1
    15    6   23 1
    16    7    8 am
    17    7   24 1
    18    8    9 2
    19    8   10 1
    20   10   12 1
    21   10   11 1
    22   10   13 1
    23   11   12 1
    24   11   25 1
    25   11   26 1
    26   12   27 1
    27   12   28 1
    28   13   14 2
    29   13   15 1
@<TRIPOS>MOLECULE
ZINC61673103
   22    23     0     0     0
SMALL
USER_CHARGES

@<TRIPOS>ATOM
      1 C1         -0.0187    1.5275    0.0104 C.3       1 <0>        -0.1480
      2 C2          1.4204    2.0497   -0.0005 C.3       1 <0>         0.0632
      3 O1          2.1240    1.5269    1.1281 O.3       1 <0>        -0.3852
      4 C3          2.2165    0.1011    1.1487 C.3       1 <0>         0.0648
      5 C4          0.8094   -0.4994    1.2059 C.3       1 <0>        -0.1544
      6 C5          0.0021   -0.0041    0.0020 C.3       1 <0>         0.0136
      7 C6         -1.4082   -0.5279    0.0908 C.2       1 <0>         0.1240
      8 N1         -2.1290   -0.7246    1.2362 N.pl3     1 <0>        -0.5982
      9 C7         -3.3412   -1.2058    0.8322 C.2       1 <0>         0.3738
     10 N2         -3.3088   -1.2783   -0.4783 N.2       1 <0>        -0.3439
     11 N3         -2.1685   -0.8719   -0.9099 N.2       1 <0>        -0.2969
     12 S1         -4.6931   -1.6468    1.8727 S.3       1 <0>        -0.8191
     13 H1         -0.5273    1.8800    0.9078 H         1 <0>         0.0706
     14 H2         -0.5443    1.8896   -0.8732 H         1 <0>         0.0809
     15 H3          1.9159    1.7307   -0.9174 H         1 <0>         0.0529
     16 H4          1.4124    3.1386    0.0486 H         1 <0>         0.0947
     17 H5          2.7224   -0.2435    0.2468 H         1 <0>         0.0531
     18 H6          2.7820   -0.2139    2.0258 H         1 <0>         0.0948
     19 H7          0.8760   -1.5870    1.1771 H         1 <0>         0.0787
     20 H8          0.3175   -0.1879    2.1273 H         1 <0>         0.0700
     21 H9          0.4664   -0.3574   -0.9187 H         1 <0>         0.0962
     22 H10        -1.8393   -0.5570    2.1466 H         1 <0>         0.4143
@<TRIPOS>BOND
     1    1    6 1
     2    1    2 1
     3    1   13 1
     4    1   14 1
     5    2    3 1
     6    2   15 1
     7    2   16 1
     8    3    4 1
     9    4    5 1
    10    4   17 1
    11    4   18 1
    12    5    6 1
    13    5   19 1
    14    5   20 1
    15    6   21 1
    16    6    7 1
    17    7    8 1
    18    7   11 2
    19    8    9 1
    20    8   22 1
    21    9   12 1
    22    9   10 2
    23   10   11 1
@<TRIPOS>MOLECULE
ZINC18106308
   10    10     0     0     0
SMALL
USER_CHARGES

@<TRIPOS>ATOM
      1 C1         -0.0163    1.3488    0.0095 C.2       1 <0>         0.5348
      2 O1          1.0208    1.9903    0.0030 O.2       1 <0>        -0.5474
      3 C2         -1.2732    1.9975    0.0190 C.2       1 <0>        -0.1566
      4 N1         -2.3683    1.2754    0.0203 N.2       1 <0>        -0.0993
      5 N2         -2.3234   -0.0086    0.0131 N.2       1 <0>        -0.3970
      6 C3         -1.1832   -0.6702    0.0041 C.2       1 <0>         0.5648
      7 O2         -1.1924   -2.0189   -0.0032 O.3       1 <0>        -0.6468
      8 N3          0.0021   -0.0041    0.0020 N.am      1 <0>        -0.6502
      9 H1          0.8426   -0.4882   -0.0089 H         1 <0>         0.4066
     10 Br1        -1.3738    3.8858    0.0304 Br        1 <0>        -0.0089
@<TRIPOS>BOND
     1    1    8 am
     2    1    2 2
     3    1    3 1
     4    3    4 2
     5    3   10 1
     6    4    5 1
     7    5    6 2
     8    6    7 1
     9    6    8 1
    10    8    9 1
@<TRIPOS>MOLECULE
ZINC35660092
   30    31     0     0     0
SMALL
USER_CHARGES

@<TRIPOS>ATOM
      1 C1         -0.0178    1.4608    0.0101 C.3       1 <0>         0.0993
      2 N1          0.0021   -0.0041    0.0020 N.pl3     1 <0>        -0.3736
      3 C2          0.0078   -0.7920   -1.0936 C.2       1 <0>         0.0819
      4 C3          0.0272   -2.0789   -0.6760 C.2       1 <0>        -0.2440
      5 C4          0.0335   -2.0775    0.7227 C.2       1 <0>         0.0720
      6 N2          0.0246   -0.8342    1.1302 N.2       1 <0>        -0.2914
      7 C5          0.0390   -3.2983   -1.5614 C.3       1 <0>        -0.5169
      8 S1          1.7538   -3.7647   -1.9254 S.o2      1 <0>         2.4908
      9 O1          2.3664   -2.7774   -2.7436 O.2       1 <0>        -0.9414
     10 O2          2.3960   -4.2280   -0.7455 O.2       1 <0>        -0.9165
     11 C6          1.6269   -5.1877   -2.9567 C.ar      1 <0>        -0.6666
     12 C7          2.0747   -5.1343   -4.2642 C.ar      1 <0>        -0.0141
     13 C8          1.9791   -6.2479   -5.0824 C.ar      1 <0>        -0.0669
     14 C9          1.4358   -7.4203   -4.5976 C.ar      1 <0>        -0.0127
     15 C10         0.9816   -7.4824   -3.2776 C.ar      1 <0>        -0.1313
     16 C11         1.0858   -6.3553   -2.4558 C.ar      1 <0>         0.0770
     17 Cl1         0.5304   -6.4222   -0.8124 Cl        1 <0>        -0.0072
     18 C12         0.4001   -8.7313   -2.7522 C.2       1 <0>         0.5202
     19 O3          0.3143   -9.7162   -3.4721 O.co2     1 <0>        -0.6771
     20 O4          0.0035   -8.7823   -1.5963 O.co2     1 <0>        -0.6508
     21 Cl2         2.5435   -6.1684   -6.7222 Cl        1 <0>        -0.0686
     22 H1          1.0048    1.8381    0.0023 H         1 <0>         0.0783
     23 H2         -0.5450    1.8219   -0.8730 H         1 <0>         0.0899
     24 H3         -0.5280    1.8123    0.9069 H         1 <0>         0.0913
     25 H4         -0.0017   -0.4556   -2.1198 H         1 <0>         0.1846
     26 H5          0.0482   -2.9516    1.3568 H         1 <0>         0.1939
     27 H6         -0.4613   -4.1220   -1.0521 H         1 <0>         0.1471
     28 H7         -0.4826   -3.0763   -2.4924 H         1 <0>         0.1421
     29 H8          2.5007   -4.2196   -4.6492 H         1 <0>         0.1561
     30 H9          1.3617   -8.2875   -5.2369 H         1 <0>         0.1546
@<TRIPOS>BOND
     1    1    2 1
     2    1   22 1
     3    1   23 1
     4    1   24 1
     5    2    6 1
     6    2    3 1
     7    3    4 2
     8    3   25 1
     9    4    5 1
    10    4    7 1
    11    5    6 2
    12    5   26 1
    13    7    8 1
    14    7   27 1
    15    7   28 1
    16    8    9 2
    17    8   10 2
    18    8   11 1
    19   11   16 ar
    20   11   12 ar
    21   12   13 ar
    22   12   29 1
    23   13   14 ar
    24   13   21 1
    25   14   15 ar
    26   14   30 1
    27   15   16 ar
    28   15   18 1
    29   16   17 1
    30   18   19 2
    31   18   20 1
@<TRIPOS>MOLECULE
ZINC44243115
   30    30     0     0     0
SMALL
USER_CHARGES

@<TRIPOS>ATOM
      1 C1          0.0609    1.7081    0.2621 C.3       1 <0>        -0.1208
      2 C2          0.1649    0.1820    0.2966 C.3       1 <0>        -0.1801
      3 H1          0.6371   -0.1290    1.2285 H         1 <0>         0.0557
      4 C3         -1.2358   -0.4268    0.2066 C.3       1 <0>         0.1321
      5 N1         -2.0049   -0.0606    1.3985 N.pl3     1 <0>        -0.9904
      6 C4         -2.7340    1.2095    1.4381 C.3       1 <0>         0.0875
      7 S1         -2.0503   -1.0824    2.7009 S.o2      1 <0>         2.6948
      8 O1         -3.2410   -0.7783    3.4144 O.2       1 <0>        -0.9554
      9 O2         -1.7704   -2.3845    2.2055 O.2       1 <0>        -0.9441
     10 C5         -0.7068   -0.6446    3.7535 C.ar      1 <0>        -0.7282
     11 C6          0.5359   -1.2371    3.5889 C.ar      1 <0>         0.0651
     12 C7          1.5642   -0.8616    4.4407 C.ar      1 <0>        -0.1667
     13 C8          1.3170    0.0846    5.4189 C.ar      1 <0>         0.1803
     14 N2          0.1219    0.6268    5.5456 N.ar      1 <0>        -0.4877
     15 C9         -0.8770    0.2978    4.7498 C.ar      1 <0>         0.2089
     16 Br1         3.2817   -1.6338    4.2674 Br        1 <0>        -0.0149
     17 C10         0.9943   -0.2914   -0.8692 C.2       1 <0>         0.5001
     18 O3          1.7913   -1.2020   -0.7204 O.co2     1 <0>        -0.6936
     19 O4          0.8683    0.2361   -1.9611 O.co2     1 <0>        -0.6927
     20 H2          1.0609    2.1396    0.2197 H         1 <0>         0.0441
     21 H3         -0.5044    2.0139   -0.6183 H         1 <0>         0.0588
     22 H4         -0.4480    2.0580    1.1602 H         1 <0>         0.0371
     23 H5         -1.7404   -0.0477   -0.6821 H         1 <0>         0.0905
     24 H6         -1.1569   -1.5122    0.1444 H         1 <0>         0.0920
     25 H7         -3.7707    1.0426    1.1460 H         1 <0>         0.0607
     26 H8         -2.7022    1.6152    2.4493 H         1 <0>         0.0630
     27 H9         -2.2714    1.9156    0.7486 H         1 <0>         0.0864
     28 H10         0.6992   -1.9736    2.8160 H         1 <0>         0.1669
     29 H11         2.1119    0.3825    6.0866 H         1 <0>         0.1727
     30 H12        -1.8409    0.7669    4.8814 H         1 <0>         0.1779
@<TRIPOS>BOND
     1    1    2 1
     2    1   20 1
     3    1   21 1
     4    1   22 1
     5    2    3 1
     6    2    4 1
     7    2   17 1
     8    4    5 1
     9    4   23 1
    10    4   24 1
    11    5    6 1
    12    5    7 1
    13    6   25 1
    14    6   26 1
    15    6   27 1
    16    7    8 2
    17    7    9 2
    18    7   10 1
    19   10   15 ar
    20   10   11 ar
    21   11   12 ar
    22   11   28 1
    23   12   13 ar
    24   12   16 1
    25   13   14 ar
    26   13   29 1
    27   14   15 ar
    28   15   30 1
    29   17   18 2
    30   17   19 1
@<TRIPOS>MOLECULE
ZINC50351390
   31    32     0     0     0
SMALL
USER_CHARGES

@<TRIPOS>ATOM
      1 C1         -0.0167    1.3837    0.0096 C.ar      1 <0>        -0.0470
      2 C2          1.1900    2.0608    0.0018 C.ar      1 <0>        -0.2036
      3 C3          2.3746    1.3325   -0.0135 C.ar      1 <0>         0.4538
      4 N1          2.3520    0.0083   -0.0208 N.ar      1 <0>        -0.5681
      5 C4          1.2160   -0.6643   -0.0136 C.ar      1 <0>         0.1849
      6 C5          0.0021   -0.0041    0.0020 C.ar      1 <0>        -0.2460
      7 Br1         1.2505   -2.5549   -0.0247 Br        1 <0>        -0.0564
      8 N2          3.5937    2.0004   -0.0215 N.2       1 <0>        -1.0764
      9 S1          5.0088    1.1406   -0.0396 S.o2      1 <0>         2.5584
     10 O1          5.0175    0.4305    1.1912 O.2       1 <0>        -1.0068
     11 O2          4.9939    0.4438   -1.2779 O.2       1 <0>        -1.0008
     12 C6          6.3175    2.3968   -0.0454 C.3       1 <0>        -0.6044
     13 C7          6.0795    3.3652   -1.2003 C.3       1 <0>        -0.0885
     14 C8          7.0049    4.5771   -1.0653 C.3       1 <0>        -0.5881
     15 S2          8.7292    4.0171   -1.1913 S.o2      1 <0>         2.4102
     16 O3          9.5806    5.0819   -0.7905 O.2       1 <0>        -0.9512
     17 O4          8.9187    3.4211   -2.4673 O.2       1 <0>        -0.9373
     18 C9          8.7976    2.7147    0.0742 C.3       1 <0>        -0.5921
     19 C10         7.6726    1.7101   -0.1876 C.3       1 <0>        -0.0978
     20 H1         -0.9523    1.9230    0.0259 H         1 <0>         0.1250
     21 H2          1.2115    3.1406    0.0070 H         1 <0>         0.1272
     22 H3         -0.9225   -0.5623    0.0078 H         1 <0>         0.1225
     23 H4          6.2908    2.9472    0.8951 H         1 <0>         0.1360
     24 H5          6.2814    2.8591   -2.1443 H         1 <0>         0.0929
     25 H6          5.0419    3.6987   -1.1849 H         1 <0>         0.1185
     26 H7          6.7930    5.2889   -1.8631 H         1 <0>         0.1375
     27 H8          6.8452    5.0525   -0.0975 H         1 <0>         0.1344
     28 H9          9.7604    2.2062    0.0232 H         1 <0>         0.1366
     29 H10         8.6688    3.1580    1.0617 H         1 <0>         0.1349
     30 H11         7.7419    0.8938    0.5314 H         1 <0>         0.0937
     31 H12         7.7718    1.3107   -1.1969 H         1 <0>         0.0981
@<TRIPOS>BOND
     1    1    6 ar
     2    1    2 ar
     3    1   20 1
     4    2    3 ar
     5    2   21 1
     6    3    4 ar
     7    3    8 1
     8    4    5 ar
     9    5    6 ar
    10    5    7 1
    11    6   22 1
    12    8    9 1
    13    9   10 2
    14    9   11 2
    15    9   12 1
    16   12   19 1
    17   12   13 1
    18   12   23 1
    19   13   14 1
    20   13   24 1
    21   13   25 1
    22   14   15 1
    23   14   26 1
    24   14   27 1
    25   15   16 2
    26   15   17 2
    27   15   18 1
    28   18   19 1
    29   18   28 1
    30   18   29 1
    31   19   30 1
    32   19   31 1
@<TRIPOS>MOLECULE
ZINC63736280
   44    45     0     0     0
SMALL
USER_CHARGES

@<TRIPOS>ATOM
      1 C1         -2.1925    1.3845   -3.2765 C.3       1 <0>        -0.6349
      2 S1         -1.5331    0.0051   -2.3003 S.o2      1 <0>         2.5243
      3 O1         -1.3804    0.3954   -0.9425 O.2       1 <0>        -1.0265
      4 O2         -2.2084   -1.1991   -2.6363 O.2       1 <0>        -1.0304
      5 N1          0.0126   -0.2082   -2.8549 N.2       1 <0>        -1.0725
      6 C2          0.8146   -1.2028   -2.3107 C.ar      1 <0>         0.3289
      7 C3          0.3218   -2.0248   -1.3045 C.ar      1 <0>        -0.2584
      8 C4          1.1203   -3.0124   -0.7658 C.ar      1 <0>        -0.0504
      9 C5          2.4168   -3.1932   -1.2215 C.ar      1 <0>        -0.2354
     10 C6          2.9229   -2.3882   -2.2182 C.ar      1 <0>        -0.0449
     11 C7          2.1251   -1.3868   -2.7780 C.ar      1 <0>        -0.2184
     12 C8          2.6584   -0.5257   -3.8493 C.2       1 <0>         0.5888
     13 O3          2.5938    0.6842   -3.7456 O.2       1 <0>        -0.5247
     14 N2          3.2175   -1.0794   -4.9434 N.am      1 <0>        -0.6205
     15 C9          3.1840   -2.5477   -5.0920 C.3       1 <0>         0.1107
     16 C10         2.8577   -2.9557   -6.5385 C.3       1 <0>        -0.1257
     17 C11         1.7920   -2.0387   -7.0970 C.3       1 <0>         0.0513
     18 N3          2.4356   -0.9215   -7.7862 N.3       1 <0>        -0.5528
     19 C12         2.7758    0.1960   -6.9887 C.3       1 <0>         0.0560
     20 C13         3.8233   -0.2105   -5.9319 C.3       1 <0>         0.1289
     21 C14         1.6584   -0.5112   -8.9634 C.3       1 <0>         0.0153
     22 C15         1.9041   -1.4984  -10.1062 C.3       1 <0>         0.4565
     23 F1          1.5404   -2.7857   -9.6966 F         1 <0>        -0.1803
     24 F2          1.1367   -1.1278  -11.2156 F         1 <0>        -0.1892
     25 F3          3.2598   -1.4843  -10.4512 F         1 <0>        -0.1767
     26 H1         -1.5795    2.2710   -3.1132 H         1 <0>         0.1169
     27 H2         -2.1763    1.1215   -4.3342 H         1 <0>         0.1133
     28 H3         -3.2177    1.5900   -2.9688 H         1 <0>         0.1013
     29 H4         -0.6872   -1.8901   -0.9436 H         1 <0>         0.1051
     30 H5          0.7329   -3.6485    0.0163 H         1 <0>         0.1032
     31 H6          3.0336   -3.9691   -0.7926 H         1 <0>         0.1047
     32 H7          3.9339   -2.5334   -2.5692 H         1 <0>         0.1067
     33 H8          4.1561   -2.9566   -4.8165 H         1 <0>         0.0571
     34 H9          2.4243   -2.9565   -4.4258 H         1 <0>         0.0922
     35 H10         3.7577   -2.8799   -7.1487 H         1 <0>         0.0754
     36 H11         2.4957   -3.9837   -6.5527 H         1 <0>         0.0777
     37 H12         1.1685   -2.5905   -7.8004 H         1 <0>         0.0831
     38 H13         1.1755   -1.6581   -6.2827 H         1 <0>         0.0598
     39 H14         3.1861    0.9817   -7.6231 H         1 <0>         0.0801
     40 H15         1.8824    0.5679   -6.4870 H         1 <0>         0.0445
     41 H16         4.2048    0.6854   -5.4422 H         1 <0>         0.0855
     42 H17         4.6453   -0.7341   -6.4200 H         1 <0>         0.0758
     43 H18         0.5976   -0.5018   -8.7131 H         1 <0>         0.0843
     44 H19         1.9676    0.4872   -9.2729 H         1 <0>         0.1144
@<TRIPOS>BOND
     1    1    2 1
     2    1   26 1
     3    1   27 1
     4    1   28 1
     5    2    3 2
     6    2    4 2
     7    2    5 1
     8    5    6 1
     9    6   11 ar
    10    6    7 ar
    11    7    8 ar
    12    7   29 1
    13    8    9 ar
    14    8   30 1
    15    9   10 ar
    16    9   31 1
    17   10   11 ar
    18   10   32 1
    19   11   12 1
    20   12   13 2
    21   12   14 am
    22   14   20 1
    23   14   15 1
    24   15   16 1
    25   15   33 1
    26   15   34 1
    27   16   17 1
    28   16   35 1
    29   16   36 1
    30   17   18 1
    31   17   37 1
    32   17   38 1
    33   18   19 1
    34   18   21 1
    35   19   20 1
    36   19   39 1
    37   19   40 1
    38   20   41 1
    39   20   42 1
    40   21   22 1
    41   21   43 1
    42   21   44 1
    43   22   23 1
    44   22   24 1
    45   22   25 1
@<TRIPOS>MOLECULE
ZINC66691322
   44    46     0     0     0
SMALL
USER_CHARGES

@<TRIPOS>ATOM
      1 C1          3.2855   -1.4056  -11.6469 C.3       1 <0>        -0.6369
      2 S1          3.7251   -0.8362   -9.9817 S.o2      1 <0>         2.5253
      3 O1          5.1362   -0.8528   -9.8154 O.2       1 <0>        -1.0293
      4 O2          2.9694    0.3188   -9.6440 O.2       1 <0>        -1.0301
      5 N1          3.1660   -2.0187   -8.9661 N.2       1 <0>        -1.0983
      6 C2          3.3423   -1.8948   -7.5857 C.ar      1 <0>         0.2785
      7 C3          3.9818   -0.7760   -7.0642 C.ar      1 <0>        -0.2312
      8 C4          4.1581   -0.6486   -5.6994 C.ar      1 <0>        -0.0746
      9 C5          3.7004   -1.6312   -4.8449 C.ar      1 <0>        -0.1691
     10 C6          3.0570   -2.7584   -5.3583 C.ar      1 <0>        -0.1022
     11 C7          2.8742   -2.8848   -6.7354 C.ar      1 <0>        -0.1581
     12 C8          2.5662   -3.8126   -4.4451 C.2       1 <0>         0.5755
     13 O3          2.0756   -3.5097   -3.3750 O.2       1 <0>        -0.5448
     14 N2          2.6628   -5.1094   -4.7991 N.am      1 <0>        -0.6152
     15 C9          2.0633   -6.1675   -3.9707 C.3       1 <0>         0.0761
     16 C10         3.1267   -7.2413   -3.7138 C.3       1 <0>         0.0516
     17 O4          3.6897   -7.6542   -4.9613 O.3       1 <0>        -0.3738
     18 C11         4.3702   -6.6150   -5.6688 C.3       1 <0>         0.1224
     19 H1          5.1596   -6.2030   -5.0401 H         1 <0>         0.0764
     20 C12         3.3656   -5.5086   -6.0288 C.3       1 <0>         0.0772
     21 C13         4.9732   -7.1764   -6.9307 C.ar      1 <0>        -0.1176
     22 C14         4.4267   -8.3028   -7.5163 C.ar      1 <0>        -0.0633
     23 C15         4.9795   -8.8180   -8.6737 C.ar      1 <0>        -0.1365
     24 C16         6.0796   -8.2074   -9.2469 C.ar      1 <0>        -0.0884
     25 C17         6.6274   -7.0810   -8.6635 C.ar      1 <0>        -0.1541
     26 C18         6.0712   -6.5609   -7.5069 C.ar      1 <0>         0.1172
     27 F1          6.6030   -5.4568   -6.9382 F         1 <0>        -0.1302
     28 H2          3.7658   -2.3645  -11.8416 H         1 <0>         0.1151
     29 H3          2.2038   -1.5200  -11.7181 H         1 <0>         0.1151
     30 H4          3.6226   -0.6746  -12.3817 H         1 <0>         0.1011
     31 H5          4.3425   -0.0040   -7.7279 H         1 <0>         0.1053
     32 H6          4.6561    0.2226   -5.3001 H         1 <0>         0.1090
     33 H7          3.8405   -1.5280   -3.7790 H         1 <0>         0.1101
     34 H8          2.3734   -3.7528   -7.1382 H         1 <0>         0.1188
     35 H9          1.7300   -5.7465   -3.0221 H         1 <0>         0.1016
     36 H10         1.2156   -6.6084   -4.4952 H         1 <0>         0.0745
     37 H11         3.9115   -6.8317   -3.0779 H         1 <0>         0.0565
     38 H12         2.6674   -8.0979   -3.2203 H         1 <0>         0.1073
     39 H13         2.6468   -5.8843   -6.7570 H         1 <0>         0.0807
     40 H14         3.8952   -4.6511   -6.4438 H         1 <0>         0.1230
     41 H15         3.5676   -8.7808   -7.0692 H         1 <0>         0.1384
     42 H16         4.5520   -9.6984   -9.1304 H         1 <0>         0.1285
     43 H17         6.5111   -8.6112  -10.1509 H         1 <0>         0.1310
     44 H18         7.4869   -6.6044   -9.1113 H         1 <0>         0.1375
@<TRIPOS>BOND
     1    1    2 1
     2    1   28 1
     3    1   29 1
     4    1   30 1
     5    2    3 2
     6    2    4 2
     7    2    5 1
     8    5    6 1
     9    6   11 ar
    10    6    7 ar
    11    7    8 ar
    12    7   31 1
    13    8    9 ar
    14    8   32 1
    15    9   10 ar
    16    9   33 1
    17   10   11 ar
    18   10   12 1
    19   11   34 1
    20   12   13 2
    21   12   14 am
    22   14   20 1
    23   14   15 1
    24   15   16 1
    25   15   35 1
    26   15   36 1
    27   16   17 1
    28   16   37 1
    29   16   38 1
    30   17   18 1
    31   18   19 1
    32   18   20 1
    33   18   21 1
    34   20   39 1
    35   20   40 1
    36   21   26 ar
    37   21   22 ar
    38   22   23 ar
    39   22   41 1
    40   23   24 ar
    41   23   42 1
    42   24   25 ar
    43   24   43 1
    44   25   26 ar
    45   25   44 1
    46   26   27 1
@<TRIPOS>MOLECULE
ZINC37111335
   34    34     0     0     0
SMALL
USER_CHARGES

@<TRIPOS>ATOM
      1 C1         -0.4234    1.1002   -0.2580 C.3       1 <0>        -0.1795
      2 C2         -0.0671   -0.3705   -0.0321 C.3       1 <0>         0.1069
      3 N1          0.8131   -0.4863    1.1333 N.pl3     1 <0>        -0.9902
      4 C3          0.2577   -0.3771    2.4845 C.3       1 <0>         0.1248
      5 C4         -0.2697   -1.7422    2.9310 C.3       1 <0>        -0.1136
      6 C5          0.8966   -2.7252    3.0510 C.3       1 <0>        -0.1465
      7 C6         -0.9609   -1.6027    4.2888 C.3       1 <0>        -0.1446
      8 S1          2.4359   -0.7405    0.9232 S.o2      1 <0>         2.6952
      9 O1          2.9437   -1.1799    2.1755 O.2       1 <0>        -0.9486
     10 O2          2.5766   -1.5050   -0.2664 O.2       1 <0>        -0.9500
     11 C7          3.1720    0.8282    0.6037 C.2       1 <0>        -0.6791
     12 C8          3.9867    1.4168    1.5369 C.2       1 <0>        -0.0768
     13 C9          4.5150    2.6530    1.1828 C.2       1 <0>        -0.1704
     14 S2          3.8232    2.8949   -0.4423 S.3       1 <0>         0.3114
     15 C10         2.9447    1.4689   -0.5731 C.2       1 <0>        -0.2008
     16 Br1         1.8806    0.8891   -2.0248 Br        1 <0>         0.0454
     17 C11         5.3780    3.4996    1.9209 C.2       1 <0>         0.5480
     18 O3          5.7568    3.1653    3.0370 O.co2     1 <0>        -0.6590
     19 O4          5.7458    4.5661    1.4431 O.co2     1 <0>        -0.6746
     20 H1          0.4897    1.6948   -0.2875 H         1 <0>         0.0632
     21 H2         -0.9553    1.2040   -1.2037 H         1 <0>         0.0668
     22 H3         -1.0583    1.4494    0.5562 H         1 <0>         0.0574
     23 H4         -0.9784   -0.9424    0.1427 H         1 <0>         0.0786
     24 H5          0.4431   -0.7602   -0.9129 H         1 <0>         0.0941
     25 H6          1.0363   -0.0459    3.1717 H         1 <0>         0.0881
     26 H7         -0.5584    0.3454    2.4846 H         1 <0>         0.0803
     27 H8         -0.9839   -2.1138    2.1962 H         1 <0>         0.0725
     28 H9          0.5209   -3.6977    3.3690 H         1 <0>         0.0522
     29 H10         1.3890   -2.8245    2.0836 H         1 <0>         0.0391
     30 H11         1.6108   -2.3536    3.7857 H         1 <0>         0.0747
     31 H12        -1.7918   -0.9024    4.2033 H         1 <0>         0.0547
     32 H13        -1.3366   -2.5752    4.6069 H         1 <0>         0.0566
     33 H14        -0.2467   -1.2311    5.0236 H         1 <0>         0.0598
     34 H15         4.2037    0.9500    2.4863 H         1 <0>         0.1641
@<TRIPOS>BOND
     1    1    2 1
     2    1   20 1
     3    1   21 1
     4    1   22 1
     5    2    3 1
     6    2   23 1
     7    2   24 1
     8    3    4 1
     9    3    8 1
    10    4    5 1
    11    4   25 1
    12    4   26 1
    13    5    6 1
    14    5    7 1
    15    5   27 1
    16    6   28 1
    17    6   29 1
    18    6   30 1
    19    7   31 1
    20    7   32 1
    21    7   33 1
    22    8    9 2
    23    8   10 2
    24    8   11 1
    25   11   15 2
    26   11   12 1
    27   12   13 2
    28   12   34 1
    29   13   14 1
    30   13   17 1
    31   14   15 1
    32   15   16 1
    33   17   18 2
    34   17   19 1
@<TRIPOS>MOLECULE
ZINC49453570
   40    42     0     0     0
SMALL
USER_CHARGES

@<TRIPOS>ATOM
      1 C1          1.4045    0.9367    1.3651 C.3       1 <0>        -0.1096
      2 C2          0.7831   -0.2394    0.6567 C.2       1 <0>        -0.0754
      3 C3          1.2407   -0.7000   -0.5303 C.2       1 <0>        -0.5546
      4 S1          0.1364   -2.0604   -0.8494 S.o2      1 <0>         2.5231
      5 O1          0.8927   -3.2607   -0.7682 O.2       1 <0>        -0.9246
      6 O2         -0.6657   -1.7138   -1.9700 O.2       1 <0>        -0.9263
      7 N1         -0.8269   -1.9707    0.5163 N.2       1 <0>        -0.7927
      8 C4         -0.3470   -0.9683    1.1974 C.2       1 <0>         0.5361
      9 N2         -0.9073   -0.6047    2.4059 N.pl3     1 <0>        -0.6666
     10 C5         -1.9687    0.4095    2.4640 C.3       1 <0>         0.1447
     11 C6         -3.1683   -0.1747    3.2167 C.3       1 <0>        -0.1102
     12 C7         -2.7085   -0.6824    4.5853 C.3       1 <0>        -0.1507
     13 C8         -1.6697   -1.7905    4.3977 C.3       1 <0>        -0.1112
     14 C9         -0.4575   -1.2290    3.6576 C.3       1 <0>         0.1445
     15 C10        -3.8923   -1.2270    5.3424 C.2       1 <0>         0.4948
     16 O3         -3.7384   -2.1301    6.1469 O.co2     1 <0>        -0.6993
     17 O4         -5.0039   -0.7645    5.1504 O.co2     1 <0>        -0.6994
     18 C11         2.3612   -0.2042   -1.3474 C.ar      1 <0>         0.0017
     19 C12         3.6035    0.0466   -0.7572 C.ar      1 <0>        -0.0841
     20 C13         4.6480    0.5107   -1.5280 C.ar      1 <0>        -0.1065
     21 C14         4.4687    0.7289   -2.8842 C.ar      1 <0>        -0.0272
     22 C15         3.2404    0.4825   -3.4754 C.ar      1 <0>        -0.1030
     23 C16         2.1890    0.0124   -2.7177 C.ar      1 <0>        -0.0940
     24 Cl1         5.7892    1.3145   -3.8471 Cl        1 <0>        -0.0652
     25 H1          1.2129    0.8589    2.4353 H         1 <0>         0.0917
     26 H2          2.4800    0.9407    1.1879 H         1 <0>         0.0858
     27 H3          0.9701    1.8610    0.9844 H         1 <0>         0.0950
     28 H4         -1.6027    1.2920    2.9886 H         1 <0>         0.0668
     29 H5         -2.2696    0.6818    1.4523 H         1 <0>         0.0663
     30 H6         -3.9251    0.5981    3.3509 H         1 <0>         0.0800
     31 H7         -3.5892   -1.0015    2.6446 H         1 <0>         0.0621
     32 H8         -2.2652    0.1395    5.1474 H         1 <0>         0.0634
     33 H9         -1.3600   -2.1677    5.3723 H         1 <0>         0.0800
     34 H10        -2.1048   -2.6021    3.8144 H         1 <0>         0.0620
     35 H11         0.2385   -2.0374    3.4333 H         1 <0>         0.0666
     36 H12         0.0346   -0.4831    4.2818 H         1 <0>         0.0668
     37 H13         3.7445   -0.1225    0.3001 H         1 <0>         0.1403
     38 H14         5.6083    0.7048   -1.0735 H         1 <0>         0.1411
     39 H15         3.1075    0.6548   -4.5333 H         1 <0>         0.1426
     40 H16         1.2332   -0.1836   -3.1808 H         1 <0>         0.1452
@<TRIPOS>BOND
     1    1    2 1
     2    1   25 1
     3    1   26 1
     4    1   27 1
     5    2    8 1
     6    2    3 2
     7    3    4 1
     8    3   18 1
     9    4    5 2
    10    4    6 2
    11    4    7 1
    12    7    8 2
    13    8    9 1
    14    9   14 1
    15    9   10 1
    16   10   11 1
    17   10   28 1
    18   10   29 1
    19   11   12 1
    20   11   30 1
    21   11   31 1
    22   12   13 1
    23   12   15 1
    24   12   32 1
    25   13   14 1
    26   13   33 1
    27   13   34 1
    28   14   35 1
    29   14   36 1
    30   15   16 2
    31   15   17 1
    32   18   23 ar
    33   18   19 ar
    34   19   20 ar
    35   19   37 1
    36   20   21 ar
    37   20   38 1
    38   21   22 ar
    39   21   24 1
    40   22   23 ar
    41   22   39 1
    42   23   40 1
@<TRIPOS>MOLECULE
ZINC60442543
   32    33     0     0     0
SMALL
USER_CHARGES

@<TRIPOS>ATOM
      1 C1         -0.0225    1.8097    0.0120 C.3       1 <0>        -0.6529
      2 S1          0.0021   -0.0041    0.0020 S.o2      1 <0>         2.5045
      3 O1          0.8352   -0.4880    1.0465 O.2       1 <0>        -0.9427
      4 O2         -1.3147   -0.5105   -0.1678 O.2       1 <0>        -0.9479
      5 C2          0.8454   -0.4373   -1.4831 C.ar      1 <0>        -0.6217
      6 C3          0.1332   -0.6124   -2.6553 C.ar      1 <0>        -0.1092
      7 C4          0.7905   -0.9525   -3.8235 C.ar      1 <0>        -0.1129
      8 C5          2.1633   -1.1185   -3.8224 C.ar      1 <0>        -0.0159
      9 C6          2.8817   -0.9429   -2.6446 C.ar      1 <0>         0.2420
     10 C7          2.2178   -0.5960   -1.4757 C.ar      1 <0>        -0.0620
     11 N1          4.2702   -1.1097   -2.6389 N.2       1 <0>        -1.0854
     12 S2          5.0609   -1.5168   -4.0358 S.o2      1 <0>         2.6174
     13 O3          4.6291   -2.8261   -4.3801 O.2       1 <0>        -1.0035
     14 O4          4.9213   -0.4119   -4.9183 O.2       1 <0>        -1.0047
     15 C8          6.7754   -1.6379   -3.6476 C.ar      1 <0>        -0.7265
     16 C9          7.5884   -0.5220   -3.7487 C.ar      1 <0>         0.2567
     17 C10         8.9354   -0.6171   -3.4438 C.ar      1 <0>        -0.2309
     18 C11         9.4692   -1.8279   -3.0372 C.ar      1 <0>         0.1983
     19 C12         8.6560   -2.9436   -2.9352 C.ar      1 <0>        -0.2306
     20 C13         7.3082   -2.8475   -3.2361 C.ar      1 <0>         0.2573
     21 F1          6.5136   -3.9351   -3.1320 F         1 <0>        -0.0928
     22 F2         10.7839   -1.9209   -2.7404 F         1 <0>        -0.1200
     23 F3          7.0674    0.6597   -4.1455 F         1 <0>        -0.0937
     24 F4          2.8056   -1.4511   -4.9635 F         1 <0>        -0.1347
     25 H1          1.0001    2.1870    0.0043 H         1 <0>         0.1320
     26 H2         -0.5497    2.1708   -0.8711 H         1 <0>         0.1298
     27 H3         -0.5327    2.1613    0.9088 H         1 <0>         0.1250
     28 H4         -0.9391   -0.4836   -2.6585 H         1 <0>         0.1336
     29 H5          0.2312   -1.0888   -4.7373 H         1 <0>         0.1273
     30 H6          2.7732   -0.4546   -0.5603 H         1 <0>         0.1434
     31 H7          9.5698    0.2533   -3.5233 H         1 <0>         0.1603
     32 H8          9.0726   -3.8883   -2.6184 H         1 <0>         0.1605
@<TRIPOS>BOND
     1    1    2 1
     2    1   25 1
     3    1   26 1
     4    1   27 1
     5    2    3 2
     6    2    4 2
     7    2    5 1
     8    5   10 ar
     9    5    6 ar
    10    6    7 ar
    11    6   28 1
    12    7    8 ar
    13    7   29 1
    14    8    9 ar
    15    8   24 1
    16    9   10 ar
    17    9   11 1
    18   10   30 1
    19   11   12 1
    20   12   13 2
    21   12   14 2
    22   12   15 1
    23   15   20 ar
    24   15   16 ar
    25   16   17 ar
    26   16   23 1
    27   17   18 ar
    28   17   31 1
    29   18   19 ar
    30   18   22 1
    31   19   20 ar
    32   19   32 1
    33   20   21 1
@<TRIPOS>MOLECULE
ZINC64667601
   32    33     0     0     0
SMALL
USER_CHARGES

@<TRIPOS>ATOM
      1 C1         -0.0187    1.5258    0.0104 C.3       1 <0>        -0.1590
      2 C2          0.0021   -0.0041    0.0020 C.3       1 <0>         0.1235
      3 C3          0.7309   -0.5033    1.2229 C.2       1 <0>         0.4938
      4 O1          2.0436   -0.8060    1.1482 O.3       1 <0>        -0.7000
      5 N1          0.0996   -0.6412    2.3398 N.2       1 <0>        -1.0581
      6 S1          0.9005   -1.1898    3.6814 S.o2      1 <0>         2.6564
      7 O2          1.2742   -2.5337    3.4101 O.2       1 <0>        -0.9961
      8 O3          1.8497   -0.1897    4.0250 O.2       1 <0>        -0.9866
      9 C4         -0.2685   -1.2483    4.9985 C.2       1 <0>        -0.6524
     10 C5         -0.6217   -2.4570    5.5709 C.2       1 <0>        -0.0603
     11 C6         -1.5242   -2.4659    6.5831 C.2       1 <0>        -0.1352
     12 S2         -1.9043   -0.7300    6.7549 S.3       1 <0>         0.1527
     13 C7         -0.8316   -0.1084    5.4703 C.2       1 <0>         0.0003
     14 Cl1        -0.5767    1.5303    4.9572 Cl        1 <0>         0.0589
     15 Cl2        -2.1484   -3.8154    7.4791 Cl        1 <0>         0.0196
     16 O4          0.6709   -0.4649   -1.1737 O.3       1 <0>        -0.3571
     17 C8         -0.1936   -0.6642   -2.2939 C.3       1 <0>         0.0884
     18 C9          0.6254   -1.1550   -3.4893 C.3       1 <0>        -0.1465
     19 C10         0.6863   -0.2516   -4.7227 C.3       1 <0>        -0.1788
     20 C11        -0.1377   -1.5403   -4.7582 C.3       1 <0>        -0.1777
     21 H1          1.0039    1.9031    0.0027 H         1 <0>         0.0645
     22 H2         -0.5459    1.8868   -0.8726 H         1 <0>         0.0534
     23 H3         -0.5289    1.8773    0.9072 H         1 <0>         0.0718
     24 H4         -1.0205   -0.3814    0.0098 H         1 <0>         0.0757
     25 H5         -0.1857   -3.3795    5.2170 H         1 <0>         0.1641
     26 H6         -0.9496   -1.4078   -2.0416 H         1 <0>         0.0499
     27 H7         -0.6807    0.2769   -2.5489 H         1 <0>         0.0452
     28 H8          1.5168   -1.7322   -3.2433 H         1 <0>         0.1154
     29 H9          0.1428    0.6923   -4.6824 H         1 <0>         0.0931
     30 H10         1.6179   -0.2342   -5.2883 H         1 <0>         0.0932
     31 H11         0.2518   -2.3706   -5.3472 H         1 <0>         0.0949
     32 H12        -1.2233   -1.4441   -4.7413 H         1 <0>         0.0929
@<TRIPOS>BOND
     1    1    2 1
     2    1   21 1
     3    1   22 1
     4    1   23 1
     5    2    3 1
     6    2   16 1
     7    2   24 1
     8    3    4 1
     9    3    5 2
    10    5    6 1
    11    6    7 2
    12    6    8 2
    13    6    9 1
    14    9   13 2
    15    9   10 1
    16   10   11 2
    17   10   25 1
    18   11   12 1
    19   11   15 1
    20   12   13 1
    21   13   14 1
    22   16   17 1
    23   17   18 1
    24   17   26 1
    25   17   27 1
    26   18   20 1
    27   18   19 1
    28   18   28 1
    29   19   20 1
    30   19   29 1
    31   19   30 1
    32   20   31 1
    33   20   32 1
@<TRIPOS>MOLECULE
ZINC67329770
   41    44     0     0     0
SMALL
USER_CHARGES

@<TRIPOS>ATOM
      1 C1         -2.6862   -0.2355    5.5569 C.3       1 <0>         0.0526
      2 N1         -2.2410   -1.4044    4.7942 N.pl3     1 <0>        -0.4949
      3 C2         -2.7658   -1.6419    3.5726 C.2       1 <0>         0.5013
      4 O1         -3.6908   -0.8193    3.0479 O.3       1 <0>        -0.6096
      5 C3         -2.3182   -2.7751    2.8607 C.ar      1 <0>        -0.2259
      6 C4         -2.8159   -3.0867    1.5875 C.ar      1 <0>        -0.0062
      7 C5         -2.3592   -4.1888    0.9314 C.ar      1 <0>        -0.1810
      8 C6         -1.3919   -5.0225    1.5141 C.ar      1 <0>        -0.0730
      9 C7         -0.8817   -4.7401    2.7705 C.ar      1 <0>        -0.0826
     10 C8         -1.3396   -3.6093    3.4622 C.ar      1 <0>         0.2192
     11 N2         -0.8738   -3.2970    4.6798 N.2       1 <0>        -0.5526
     12 C9         -1.3124   -2.2223    5.3171 C.2       1 <0>         0.5035
     13 S1         -0.6781   -1.8660    6.8668 S.2       1 <0>        -0.7060
     14 C10        -0.9126   -6.2157    0.7787 C.2       1 <0>         0.5659
     15 O2          0.2784   -6.4440    0.7016 O.2       1 <0>        -0.5193
     16 N3         -1.7975   -7.0482    0.1952 N.am      1 <0>        -0.5732
     17 C11        -3.2302   -6.7466    0.2458 C.3       1 <0>         0.1333
     18 C12        -3.8692   -7.1220   -1.0664 C.2       1 <0>        -0.1291
     19 C13        -3.8233   -6.2555   -2.1423 C.2       1 <0>        -0.1411
     20 C14        -4.4080   -6.6237   -3.3084 C.2       1 <0>        -0.1700
     21 S2         -5.0515   -8.2393   -2.9047 S.3       1 <0>         0.0311
     22 C15        -4.4928   -8.3168   -1.2108 C.2       1 <0>        -0.1616
     23 C16        -1.3266   -8.2546   -0.4896 C.3       1 <0>         0.0750
     24 C17         0.0819   -8.7513   -0.1574 C.3       1 <0>        -0.1929
     25 C18        -0.1979   -8.0928   -1.5098 C.3       1 <0>        -0.1840
     26 H1         -2.1571   -0.2000    6.5092 H         1 <0>         0.1288
     27 H2         -2.4744    0.6708    4.9895 H         1 <0>         0.0702
     28 H3         -3.7584   -0.3076    5.7394 H         1 <0>         0.0703
     29 H4         -3.5607   -2.4536    1.1281 H         1 <0>         0.1362
     30 H5         -2.7460   -4.4247   -0.0490 H         1 <0>         0.1312
     31 H6         -0.1379   -5.3854    3.2139 H         1 <0>         0.1406
     32 H7         -3.6932   -7.3163    1.0516 H         1 <0>         0.0757
     33 H8         -3.3710   -5.6810    0.4268 H         1 <0>         0.1241
     34 H9         -3.3292   -5.2991   -2.0550 H         1 <0>         0.1342
     35 H10        -4.4691   -6.0806   -4.2399 H         1 <0>         0.1853
     36 H11        -4.6197   -9.1096   -0.4884 H         1 <0>         0.1860
     37 H12        -2.0893   -9.0051   -0.6976 H         1 <0>         0.1262
     38 H13         0.6581   -8.1805    0.5707 H         1 <0>         0.1372
     39 H14         0.2460   -9.8288   -0.1466 H         1 <0>         0.0876
     40 H15        -0.2178   -8.7371   -2.3888 H         1 <0>         0.0918
     41 H16         0.1943   -7.0888   -1.6714 H         1 <0>         0.0960
@<TRIPOS>BOND
     1    1    2 1
     2    1   26 1
     3    1   27 1
     4    1   28 1
     5    2   12 1
     6    2    3 1
     7    3    4 1
     8    3    5 2
     9    5   10 ar
    10    5    6 ar
    11    6    7 ar
    12    6   29 1
    13    7    8 ar
    14    7   30 1
    15    8    9 ar
    16    8   14 1
    17    9   10 ar
    18    9   31 1
    19   10   11 2
    20   11   12 1
    21   12   13 2
    22   14   15 2
    23   14   16 am
    24   16   17 1
    25   16   23 1
    26   17   18 1
    27   17   32 1
    28   17   33 1
    29   18   22 2
    30   18   19 1
    31   19   20 2
    32   19   34 1
    33   20   21 1
    34   20   35 1
    35   21   22 1
    36   22   36 1
    37   23   25 1
    38   23   24 1
    39   23   37 1
    40   24   25 1
    41   24   38 1
    42   24   39 1
    43   25   40 1
    44   25   41 1
@<TRIPOS>MOLECULE
ZINC13654986
   54    57     0     0     0
SMALL
USER_CHARGES
(3R)-1-[2-(2,3,4,9-tetramethyl-7-oxo-pyrano[6,5-g]benzofuran-8-yl)acetyl]piperidine-3-carboxylic acid
@<TRIPOS>ATOM
      1 C1          3.0258    3.5894   -0.5691 C.3       1 <0>        -0.1227
      2 C2          1.5929    3.1356   -0.4600 C.ar      1 <0>         0.0184
      3 C3          0.5926    4.0616   -0.3876 C.ar      1 <0>        -0.1529
      4 C4         -0.7372    3.6599   -0.2873 C.ar      1 <0>         0.1829
      5 C5         -1.0559    2.2920   -0.2642 C.ar      1 <0>        -0.1364
      6 C6         -2.4580    1.8894   -0.1549 C.2       1 <0>         0.0435
      7 C7         -3.4032    2.8638   -0.0876 C.2       1 <0>        -0.2028
      8 C8         -3.0138    4.2182   -0.1200 C.2       1 <0>         0.5213
      9 O1         -3.8691    5.0833   -0.0591 O.2       1 <0>        -0.4573
     10 O2         -1.7252    4.5786   -0.2167 O.3       1 <0>        -0.2616
     11 C9         -4.8611    2.4979    0.0206 C.3       1 <0>        -0.0838
     12 C10        -5.4512    2.3719   -1.3603 C.2       1 <0>         0.5160
     13 O3         -4.7564    2.5607   -2.3362 O.2       1 <0>        -0.5352
     14 N1         -6.7512    2.0495   -1.5107 N.am      1 <0>        -0.6077
     15 C11        -7.6040    1.8117   -0.3382 C.3       1 <0>         0.1054
     16 C12        -8.2769    0.4477   -0.4807 C.3       1 <0>        -0.1354
     17 C13        -9.0159    0.3833   -1.8193 C.3       1 <0>        -0.0971
     18 C14        -8.0154    0.5523   -2.9650 C.3       1 <0>        -0.1394
     19 H1         -7.2596   -0.2310   -2.9071 H         1 <0>         0.0703
     20 C15        -7.3409    1.9230   -2.8505 C.3       1 <0>         0.1357
     21 C16        -8.7393    0.4565   -4.2832 C.2       1 <0>         0.4672
     22 O4         -9.9327    0.2690   -4.3049 O.co2     1 <0>        -0.6370
     23 C17        -2.8445    0.4332   -0.1224 C.3       1 <0>        -0.1298
     24 C18        -0.0303    1.3339   -0.3333 C.ar      1 <0>         0.1152
     25 C19         1.2979    1.7695   -0.4340 C.ar      1 <0>        -0.1483
     26 C20         2.1079    0.5462   -0.4913 C.2       1 <0>        -0.1635
     27 C21         1.2445   -0.4763   -0.4237 C.2       1 <0>         0.0209
     28 O5         -0.0136   -0.0116   -0.3307 O.3       1 <0>        -0.1755
     29 C22         1.6276   -1.9336   -0.4488 C.3       1 <0>        -0.0785
     30 C23         3.6081    0.4584   -0.6043 C.3       1 <0>        -0.0850
     31 H2          3.3267    3.5937   -1.6168 H         1 <0>         0.0825
     32 H3          3.1206    4.5951   -0.1597 H         1 <0>         0.0754
     33 H4          3.6665    2.9076   -0.0099 H         1 <0>         0.0793
     34 H5          0.8343    5.1140   -0.4086 H         1 <0>         0.1509
     35 H6         -4.9592    1.5477    0.5457 H         1 <0>         0.1092
     36 H7         -5.3906    3.2744    0.5726 H         1 <0>         0.1119
     37 H8         -6.9947    1.8244    0.5655 H         1 <0>         0.0782
     38 H9         -8.3669    2.5879   -0.2778 H         1 <0>         0.0701
     39 H10        -8.9867    0.3040    0.3339 H         1 <0>         0.0715
     40 H11        -7.5188   -0.3346   -0.4457 H         1 <0>         0.0617
     41 H12        -9.7570    1.1814   -1.8638 H         1 <0>         0.0634
     42 H13        -9.5150   -0.5812   -1.9124 H         1 <0>         0.0653
     43 H14        -8.0819    2.7084   -2.9992 H         1 <0>         0.0624
     44 H15        -6.5583    2.0116   -3.6040 H         1 <0>         0.0983
     45 H16        -3.0134    0.0793   -1.1395 H         1 <0>         0.0954
     46 H17        -2.0421   -0.1456    0.3351 H         1 <0>         0.0836
     47 H18        -3.7575    0.3125    0.4606 H         1 <0>         0.0843
     48 H19         0.7291   -2.5467   -0.3796 H         1 <0>         0.0812
     49 H20         2.1487   -2.1563   -1.3800 H         1 <0>         0.0902
     50 H21         2.2822   -2.1518    0.3950 H         1 <0>         0.0893
     51 H22         3.8990    0.5405   -1.6515 H         1 <0>         0.0721
     52 H23         4.0633    1.2696   -0.0361 H         1 <0>         0.0729
     53 H24         3.9470   -0.4983   -0.2069 H         1 <0>         0.0693
     54 O6         -8.0582    0.5794   -5.4334 O.co2     1 <0>        -0.7652
@<TRIPOS>BOND
     1    1    2 1
     2    1   31 1
     3    1   32 1
     4    1   33 1
     5    2   25 ar
     6    2    3 ar
     7    3    4 ar
     8    3   34 1
     9    4   10 1
    10    4    5 ar
    11    5    6 1
    12    5   24 ar
    13    6    7 2
    14    6   23 1
    15    7    8 1
    16    7   11 1
    17    8    9 2
    18    8   10 1
    19   11   12 1
    20   11   35 1
    21   11   36 1
    22   12   13 2
    23   12   14 am
    24   14   20 1
    25   14   15 1
    26   15   16 1
    27   15   37 1
    28   15   38 1
    29   16   17 1
    30   16   39 1
    31   16   40 1
    32   17   18 1
    33   17   41 1
    34   17   42 1
    35   18   19 1
    36   18   20 1
    37   18   21 1
    38   20   43 1
    39   20   44 1
    40   21   22 2
    41   21   54 1
    42   23   45 1
    43   23   46 1
    44   23   47 1
    45   24   28 1
    46   24   25 ar
    47   25   26 1
    48   26   27 2
    49   26   30 1
    50   27   28 1
    51   27   29 1
    52   29   48 1
    53   29   49 1
    54   29   50 1
    55   30   51 1
    56   30   52 1
    57   30   53 1
@<TRIPOS>MOLECULE
ZINC39379416
   49    51     0     0     0
SMALL
USER_CHARGES

@<TRIPOS>ATOM
      1 C1         -0.0184    1.5028    0.0103 C.3       1 <0>        -0.0925
      2 C2          0.0021   -0.0041    0.0020 C.2       1 <0>         0.3129
      3 C3         -1.1960   -0.7041    0.0040 C.2       1 <0>        -0.3759
      4 C4         -1.1789   -2.2141   -0.0683 C.3       1 <0>         0.0513
      5 H1         -1.1242   -2.5300   -1.1101 H         1 <0>         0.0652
      6 C5          0.0439   -2.7225    0.6853 C.3       1 <0>        -0.2293
      7 H2         -0.0996   -2.4870    1.7399 H         1 <0>         0.1103
      8 C6          1.2438   -1.9404    0.1953 C.2       1 <0>         0.4928
      9 N1          2.3401   -2.6268   -0.0842 N.2       1 <0>        -0.6184
     10 C7          2.3609   -3.9561   -0.0240 C.2       1 <0>         0.4399
     11 N2          1.3074   -4.7300    0.1929 N.2       1 <0>        -0.6979
     12 C8          0.1137   -4.2285    0.5529 C.2       1 <0>         0.5343
     13 O1         -0.8560   -4.9346    0.7529 O.2       1 <0>        -0.4849
     14 S1          3.9163   -4.7520   -0.2518 S.3       1 <0>        -0.0205
     15 C9          3.5316   -6.5184   -0.1012 C.3       1 <0>        -0.0979
     16 C10         4.8120   -7.3363   -0.2810 C.3       1 <0>        -0.0815
     17 C11         4.5116   -8.8155   -0.0309 C.3       1 <0>        -0.1410
     18 C12         5.3362   -7.1563   -1.7071 C.3       1 <0>        -0.1522
     19 N3          1.1620   -0.6402   -0.0125 N.2       1 <0>        -0.5989
     20 C13        -2.4318   -2.7651    0.5623 C.ar      1 <0>        -0.0088
     21 C14        -2.7146   -2.4949    1.8882 C.ar      1 <0>        -0.0999
     22 C15        -3.8638   -3.0003    2.4667 C.ar      1 <0>        -0.1209
     23 C16        -4.7306   -3.7755    1.7192 C.ar      1 <0>        -0.1331
     24 C17        -4.4482   -4.0449    0.3930 C.ar      1 <0>        -0.1187
     25 C18        -3.3011   -3.5359   -0.1866 C.ar      1 <0>        -0.0886
     26 C19        -2.3973   -0.0252    0.0721 C.2       1 <0>         0.4799
     27 O2         -2.4079    1.3198    0.1368 O.3       1 <0>        -0.6279
     28 O3         -3.5576   -0.7085    0.0737 O.3       1 <0>        -0.3124
     29 C20        -4.7616    0.0577    0.1461 C.3       1 <0>         0.0386
     30 H3          1.0042    1.8801    0.0026 H         1 <0>         0.0568
     31 H4         -0.5455    1.8639   -0.8728 H         1 <0>         0.0855
     32 H5         -0.5286    1.8543    0.9071 H         1 <0>         0.0926
     33 H6          3.1098   -6.7156    0.8843 H         1 <0>         0.0911
     34 H7          2.8100   -6.7997   -0.8683 H         1 <0>         0.0933
     35 H8          5.5649   -6.9934    0.4288 H         1 <0>         0.0776
     36 H9          3.7588   -9.1584   -0.7407 H         1 <0>         0.0574
     37 H10         5.4238   -9.3983   -0.1590 H         1 <0>         0.0578
     38 H11         4.1382   -8.9438    0.9850 H         1 <0>         0.0566
     39 H12         4.5834   -7.4992   -2.4169 H         1 <0>         0.0572
     40 H13         5.5503   -6.1025   -1.8852 H         1 <0>         0.0652
     41 H14         6.2484   -7.7391   -1.8351 H         1 <0>         0.0550
     42 H15        -2.0374   -1.8893    2.4722 H         1 <0>         0.1048
     43 H16        -4.0844   -2.7899    3.5028 H         1 <0>         0.1095
     44 H17        -5.6281   -4.1710    2.1713 H         1 <0>         0.1094
     45 H18        -5.1252   -4.6508   -0.1909 H         1 <0>         0.1105
     46 H19        -3.0824   -3.7433   -1.2237 H         1 <0>         0.1067
     47 H20        -5.6204   -0.6135    0.1394 H         1 <0>         0.0862
     48 H21        -4.7651    0.6430    1.0656 H         1 <0>         0.0520
     49 H22        -4.8177    0.7281   -0.7116 H         1 <0>         0.0512
@<TRIPOS>BOND
     1    1    2 1
     2    1   30 1
     3    1   31 1
     4    1   32 1
     5    2   19 2
     6    2    3 1
     7    3    4 1
     8    3   26 2
     9    4    5 1
    10    4    6 1
    11    4   20 1
    12    6    7 1
    13    6   12 1
    14    6    8 1
    15    8    9 2
    16    8   19 1
    17    9   10 1
    18   10   11 2
    19   10   14 1
    20   11   12 1
    21   12   13 2
    22   14   15 1
    23   15   16 1
    24   15   33 1
    25   15   34 1
    26   16   17 1
    27   16   18 1
    28   16   35 1
    29   17   36 1
    30   17   37 1
    31   17   38 1
    32   18   39 1
    33   18   40 1
    34   18   41 1
    35   20   25 ar
    36   20   21 ar
    37   21   22 ar
    38   21   42 1
    39   22   23 ar
    40   22   43 1
    41   23   24 ar
    42   23   44 1
    43   24   25 ar
    44   24   45 1
    45   25   46 1
    46   26   27 1
    47   26   28 1
    48   28   29 1
    49   29   47 1
    50   29   48 1
    51   29   49 1
@<TRIPOS>MOLECULE
ZINC43736597
   64    67     0     0     0
SMALL
USER_CHARGES

@<TRIPOS>ATOM
      1 C1          0.7651    0.6453    1.9403 C.3       1 <0>        -0.2118
      2 C2          0.2528    0.0779    0.6416 C.2       1 <0>         0.3649
      3 O1          0.9270    0.1522   -0.3575 O.2       1 <0>        -0.4581
      4 C3         -1.1010   -0.5823    0.5898 C.3       1 <0>        -0.1333
      5 H1         -1.7751   -0.1172    1.3090 H         1 <0>         0.0988
      6 C4         -1.6909   -0.4853   -0.8392 C.3       1 <0>        -0.1134
      7 C5         -1.8003   -1.9416   -1.3678 C.3       1 <0>        -0.1106
      8 C6         -0.7509   -2.6878   -0.5367 C.3       1 <0>        -0.0832
      9 H2          0.2517   -2.4594   -0.8981 H         1 <0>         0.0766
     10 C7         -0.9721   -2.0751    0.8751 C.3       1 <0>        -0.0460
     11 C8          0.1995   -2.4995    1.7397 C.3       1 <0>        -0.1277
     12 C9          0.1295   -4.0284    1.8820 C.3       1 <0>         0.0908
     13 H3          0.9806   -4.3702    2.4709 H         1 <0>         0.0892
     14 C10         0.1538   -4.7211    0.5231 C.3       1 <0>        -0.0628
     15 H4          1.1193   -4.5466    0.0481 H         1 <0>         0.0847
     16 C11        -0.9418   -4.1892   -0.4253 C.3       1 <0>        -0.0838
     17 H5         -1.9193   -4.4032    0.0068 H         1 <0>         0.1019
     18 C12        -0.8228   -4.8368   -1.8049 C.3       1 <0>        -0.1073
     19 C13        -1.0410   -6.3503   -1.6940 C.3       1 <0>        -0.0965
     20 C14        -0.0501   -6.8844   -0.6736 C.2       1 <0>        -0.0182
     21 C15         0.7485   -7.8905   -1.0191 C.2       1 <0>        -0.2459
     22 C16         1.7376   -8.3810   -0.0488 C.2       1 <0>         0.3915
     23 O2          2.1680   -9.5148   -0.0866 O.2       1 <0>        -0.4616
     24 C17         2.1883   -7.3843    1.0026 C.3       1 <0>        -0.1632
     25 C18         0.9353   -6.8184    1.6699 C.3       1 <0>        -0.1152
     26 C19        -0.0507   -6.2246    0.7112 C.3       1 <0>        -0.0243
     27 C20        -1.4438   -6.3995    1.3190 C.3       1 <0>        -0.1544
     28 O3         -1.0781   -4.3788    2.5611 O.3       1 <0>        -0.3281
     29 C21        -1.0237   -4.4566    3.9000 C.2       1 <0>         0.4478
     30 O4          0.0148   -4.2345    4.4764 O.2       1 <0>        -0.5108
     31 C22        -2.2578   -4.8209    4.6844 C.3       1 <0>        -0.0881
     32 C23        -1.9259   -4.8394    6.1779 C.3       1 <0>        -0.1717
     33 C24        -3.1601   -5.2037    6.9622 C.2       1 <0>         0.4922
     34 O5         -4.2079   -5.4278    6.3806 O.co2     1 <0>        -0.6980
     35 O6         -3.1107   -5.2743    8.1784 O.co2     1 <0>        -0.6991
     36 C25        -2.2783   -2.6035    1.4714 C.3       1 <0>        -0.1498
     37 H6          1.7529    1.0785    1.7830 H         1 <0>         0.0798
     38 H7          0.0819    1.4173    2.2942 H         1 <0>         0.0920
     39 H8          0.8312   -0.1497    2.6832 H         1 <0>         0.0954
     40 H9         -2.6781   -0.0242   -0.8059 H         1 <0>         0.0675
     41 H10        -1.0273    0.0962   -1.4793 H         1 <0>         0.0743
     42 H11        -2.7961   -2.3449   -1.1839 H         1 <0>         0.0713
     43 H12        -1.5549   -1.9862   -2.4289 H         1 <0>         0.0655
     44 H13         1.1363   -2.2137    1.2614 H         1 <0>         0.0756
     45 H14         0.1250   -2.0315    2.7213 H         1 <0>         0.0778
     46 H15        -1.5736   -4.4109   -2.4705 H         1 <0>         0.0730
     47 H16         0.1700   -4.6432   -2.2111 H         1 <0>         0.0638
     48 H17        -2.0592   -6.5537   -1.3623 H         1 <0>         0.0860
     49 H18        -0.8655   -6.8210   -2.6613 H         1 <0>         0.0758
     50 H19         0.6711   -8.3404   -1.9979 H         1 <0>         0.1350
     51 H20         2.8086   -7.8856    1.7455 H         1 <0>         0.0922
     52 H21         2.7520   -6.5792    0.5313 H         1 <0>         0.0969
     53 H22         0.4358   -7.6174    2.2178 H         1 <0>         0.0745
     54 H23         1.2312   -6.0413    2.3746 H         1 <0>         0.0834
     55 H24        -2.1361   -5.7018    0.8478 H         1 <0>         0.0744
     56 H25        -1.7873   -7.4205    1.1524 H         1 <0>         0.0481
     57 H26        -1.4005   -6.2010    2.3899 H         1 <0>         0.0824
     58 H27        -3.0392   -4.0849    4.4949 H         1 <0>         0.1032
     59 H28        -2.6055   -5.8072    4.3772 H         1 <0>         0.1025
     60 H29        -1.1446   -5.5754    6.3673 H         1 <0>         0.0648
     61 H30        -1.5782   -3.8530    6.4850 H         1 <0>         0.0646
     62 H31        -3.1234   -2.1714    0.9354 H         1 <0>         0.0508
     63 H32        -2.3066   -3.6893    1.3796 H         1 <0>         0.0989
     64 H33        -2.3355   -2.3263    2.5240 H         1 <0>         0.0545
@<TRIPOS>BOND
     1    1    2 1
     2    1   37 1
     3    1   38 1
     4    1   39 1
     5    2    3 2
     6    2    4 1
     7    4    5 1
     8    4   10 1
     9    4    6 1
    10    6    7 1
    11    6   40 1
    12    6   41 1
    13    7    8 1
    14    7   42 1
    15    7   43 1
    16    8    9 1
    17    8   16 1
    18    8   10 1
    19   10   11 1
    20   10   36 1
    21   11   12 1
    22   11   44 1
    23   11   45 1
    24   12   13 1
    25   12   14 1
    26   12   28 1
    27   14   15 1
    28   14   26 1
    29   14   16 1
    30   16   17 1
    31   16   18 1
    32   18   19 1
    33   18   46 1
    34   18   47 1
    35   19   20 1
    36   19   48 1
    37   19   49 1
    38   20   26 1
    39   20   21 2
    40   21   22 1
    41   21   50 1
    42   22   23 2
    43   22   24 1
    44   24   25 1
    45   24   51 1
    46   24   52 1
    47   25   26 1
    48   25   53 1
    49   25   54 1
    50   26   27 1
    51   27   55 1
    52   27   56 1
    53   27   57 1
    54   28   29 1
    55   29   30 2
    56   29   31 1
    57   31   32 1
    58   31   58 1
    59   31   59 1
    60   32   33 1
    61   32   60 1
    62   32   61 1
    63   33   34 2
    64   33   35 1
    65   36   62 1
    66   36   63 1
    67   36   64 1
@<TRIPOS>MOLECULE
ZINC59136358
   45    47     0     0     0
SMALL
USER_CHARGES

@<TRIPOS>ATOM
      1 C1          1.2851    0.9869   -0.7017 C.2       1 <0>        -0.2033
      2 C2          0.8192   -0.2101   -0.4441 C.2       1 <0>        -0.1355
      3 C3          1.7708   -1.3568   -0.2195 C.3       1 <0>        -0.0436
      4 C4          1.4743   -2.0027    1.1094 C.ar      1 <0>        -0.1260
      5 C5          2.1718   -1.6253    2.2210 C.ar      1 <0>        -0.0397
      6 C6          1.8940   -2.2276    3.4582 C.ar      1 <0>        -0.1209
      7 C7          0.8995   -3.2152    3.5438 C.ar      1 <0>         0.0413
      8 C8          0.2095   -3.5834    2.4249 C.ar      1 <0>        -0.2185
      9 C9          0.4863   -2.9783    1.2021 C.ar      1 <0>         0.1530
     10 O1         -0.2065   -3.3450    0.0952 O.3       1 <0>        -0.3051
     11 C10        -1.2068   -4.3520    0.2600 C.3       1 <0>         0.1556
     12 C11        -1.8508   -4.6206   -1.0362 C.1       1 <0>         0.2140
     13 N1         -2.3478   -4.8278   -2.0364 N.1       1 <0>        -0.4014
     14 C12         2.6370   -1.8289    4.6520 C.2       1 <0>         0.0897
     15 C13         3.1498   -2.7938    5.5030 C.2       1 <0>        -0.2665
     16 C14         3.1812   -4.2158    5.1240 C.2       1 <0>         0.4945
     17 O2          2.7076   -4.6220    3.9267 O.3       1 <0>        -0.5752
     18 N2          3.6838   -5.0852    5.9823 N.2       1 <0>        -0.5921
     19 C15         4.1580   -4.7142    7.1689 C.2       1 <0>         0.5440
     20 S1          4.7865   -5.9251    8.2031 S.2       1 <0>        -0.6487
     21 N3          4.1713   -3.4442    7.5994 N.am      1 <0>        -0.5089
     22 C16         3.6956   -2.4421    6.8293 C.2       1 <0>         0.5610
     23 O3          3.7122   -1.2888    7.2170 O.2       1 <0>        -0.5011
     24 C17         4.6926   -3.1515    8.8673 C.ar      1 <0>         0.1228
     25 C18         6.0392   -2.8484    9.0127 C.ar      1 <0>        -0.0636
     26 C19         6.5502   -2.5598   10.2633 C.ar      1 <0>        -0.1225
     27 C20         5.7223   -2.5729   11.3709 C.ar      1 <0>        -0.0874
     28 C21         4.3803   -2.8747   11.2314 C.ar      1 <0>        -0.1492
     29 C22         3.8607   -3.1586    9.9813 C.ar      1 <0>         0.1254
     30 F1          2.5481   -3.4476    9.8438 F         1 <0>        -0.1334
     31 H1          2.3512    1.1519   -0.7531 H         1 <0>         0.0952
     32 H2          0.6030    1.8078   -0.8671 H         1 <0>         0.0944
     33 H3         -0.2469   -0.3750   -0.3927 H         1 <0>         0.1072
     34 H4          1.6491   -2.0912   -1.0156 H         1 <0>         0.0839
     35 H5          2.7953   -0.9846   -0.2220 H         1 <0>         0.0746
     36 H6          2.9358   -0.8653    2.1484 H         1 <0>         0.1297
     37 H7          0.6812   -3.6828    4.4926 H         1 <0>         0.1229
     38 H8         -0.5557   -4.3429    2.4893 H         1 <0>         0.1310
     39 H9         -0.7443   -5.2662    0.6322 H         1 <0>         0.1144
     40 H10        -1.9555   -4.0072    0.9732 H         1 <0>         0.1116
     41 H11         2.7862   -0.7818    4.8705 H         1 <0>         0.1435
     42 H12         6.6872   -2.8384    8.1488 H         1 <0>         0.1294
     43 H13         7.5980   -2.3240   10.3762 H         1 <0>         0.1325
     44 H14         6.1251   -2.3472   12.3472 H         1 <0>         0.1332
     45 H15         3.7364   -2.8845   12.0984 H         1 <0>         0.1375
@<TRIPOS>BOND
     1    1    2 2
     2    1   31 1
     3    1   32 1
     4    2    3 1
     5    2   33 1
     6    3    4 1
     7    3   34 1
     8    3   35 1
     9    4    9 ar
    10    4    5 ar
    11    5    6 ar
    12    5   36 1
    13    6    7 ar
    14    6   14 1
    15    7    8 ar
    16    7   37 1
    17    8    9 ar
    18    8   38 1
    19    9   10 1
    20   10   11 1
    21   11   12 1
    22   11   39 1
    23   11   40 1
    24   12   13 3
    25   14   15 2
    26   14   41 1
    27   15   22 1
    28   15   16 1
    29   16   17 1
    30   16   18 2
    31   18   19 1
    32   19   20 2
    33   19   21 1
    34   21   22 am
    35   21   24 1
    36   22   23 2
    37   24   29 ar
    38   24   25 ar
    39   25   26 ar
    40   25   42 1
    41   26   27 ar
    42   26   43 1
    43   27   28 ar
    44   27   44 1
    45   28   29 ar
    46   28   45 1
    47   29   30 1
@<TRIPOS>MOLECULE
ZINC66581548
   44    45     0     0     0
SMALL
USER_CHARGES

@<TRIPOS>ATOM
      1 C1         -0.0178    1.4608    0.0101 C.3       1 <0>         0.0875
      2 N1          0.0021   -0.0041    0.0020 N.am      1 <0>        -0.6258
      3 C2          0.0241   -0.7433    1.2666 C.3       1 <0>         0.0753
      4 C3          0.0001   -0.6716   -1.1688 C.2       1 <0>         0.5152
      5 O1         -0.0182   -0.0596   -2.2157 O.2       1 <0>        -0.5132
      6 C4          0.0205   -2.1784   -1.1771 C.3       1 <0>         0.0497
      7 O2          0.0141   -2.6475   -2.5269 O.3       1 <0>        -0.2977
      8 C5          0.0307   -3.9937   -2.7124 C.ar      1 <0>         0.1554
      9 C6          0.0469   -4.8455   -1.6164 C.ar      1 <0>        -0.3081
     10 C7          0.0638   -6.2144   -1.8032 C.ar      1 <0>        -0.0329
     11 C8          0.0646   -6.7401   -3.0809 C.ar      1 <0>        -0.2884
     12 C9          0.0484   -5.8924   -4.1815 C.ar      1 <0>         0.3109
     13 C10         0.0256   -4.5168   -3.9956 C.ar      1 <0>        -0.2072
     14 N2          0.0492   -6.4235   -5.4733 N.2       1 <0>        -1.0860
     15 S1          0.0694   -8.0647   -5.6938 S.o2      1 <0>         2.5938
     16 O3          1.3231   -8.5243   -5.2078 O.2       1 <0>        -1.0296
     17 O4         -1.1673   -8.5566   -5.1960 O.2       1 <0>        -1.0294
     18 C11         0.0650   -8.3570   -7.4314 C.2       1 <0>        -0.6595
     19 C12         1.1103   -8.9319   -8.0095 C.2       1 <0>        -0.0051
     20 C13         1.1066   -9.1771   -9.4670 C.ar      1 <0>        -0.0598
     21 C14         0.0068   -8.7995  -10.2384 C.ar      1 <0>        -0.0873
     22 C15         0.0094   -9.0311  -11.5983 C.ar      1 <0>        -0.1177
     23 C16         1.0991   -9.6370  -12.1985 C.ar      1 <0>        -0.1039
     24 C17         2.1926  -10.0145  -11.4406 C.ar      1 <0>        -0.1146
     25 C18         2.2059   -9.7824  -10.0791 C.ar      1 <0>        -0.0199
     26 Cl1         3.5824  -10.2496   -9.1300 Cl        1 <0>        -0.0587
     27 H1          1.0048    1.8381    0.0023 H         1 <0>         0.0543
     28 H2         -0.5450    1.8219   -0.8730 H         1 <0>         0.0770
     29 H3         -0.5280    1.8123    0.9069 H         1 <0>         0.0696
     30 H4          0.0224   -0.0395    2.0990 H         1 <0>         0.0795
     31 H5         -0.8567   -1.3823    1.3294 H         1 <0>         0.0646
     32 H6          0.9230   -1.3581    1.3125 H         1 <0>         0.0646
     33 H7          0.9202   -2.5324   -0.6737 H         1 <0>         0.0883
     34 H8         -0.8595   -2.5566   -0.6569 H         1 <0>         0.0883
     35 H9          0.0467   -4.4376   -0.6164 H         1 <0>         0.1065
     36 H10         0.0768   -6.8748   -0.9488 H         1 <0>         0.1059
     37 H11         0.0782   -7.8104   -3.2241 H         1 <0>         0.0996
     38 H12         0.0082   -3.8556   -4.8493 H         1 <0>         0.1216
     39 H13        -0.7894   -8.0678   -8.0254 H         1 <0>         0.1511
     40 H14         1.9647   -9.2211   -7.4155 H         1 <0>         0.1460
     41 H15        -0.8450   -8.3272   -9.7716 H         1 <0>         0.1393
     42 H16        -0.8415   -8.7392  -12.1960 H         1 <0>         0.1323
     43 H17         1.0955   -9.8162  -13.2635 H         1 <0>         0.1327
     44 H18         3.0399  -10.4872  -11.9151 H         1 <0>         0.1357
@<TRIPOS>BOND
     1    1    2 1
     2    1   27 1
     3    1   28 1
     4    1   29 1
     5    2    3 1
     6    2    4 am
     7    3   30 1
     8    3   31 1
     9    3   32 1
    10    4    5 2
    11    4    6 1
    12    6    7 1
    13    6   33 1
    14    6   34 1
    15    7    8 1
    16    8   13 ar
    17    8    9 ar
    18    9   10 ar
    19    9   35 1
    20   10   11 ar
    21   10   36 1
    22   11   12 ar
    23   11   37 1
    24   12   13 ar
    25   12   14 1
    26   13   38 1
    27   14   15 1
    28   15   16 2
    29   15   17 2
    30   15   18 1
    31   18   19 2
    32   18   39 1
    33   19   20 1
    34   19   40 1
    35   20   25 ar
    36   20   21 ar
    37   21   22 ar
    38   21   41 1
    39   22   23 ar
    40   22   42 1
    41   23   24 ar
    42   23   43 1
    43   24   25 ar
    44   24   44 1
    45   25   26 1
@<TRIPOS>MOLECULE
ZINC22065404
   54    57     0     0     0
SMALL
USER_CHARGES
[(8R,9S,10R,13S,14S,17R)-13-ethyl-17-ethynyl-3-oxo-1,2,6,7,8,9,10,11,12,14,15,16-dodecahydrocyclopenta[a]phenanthren-17-yl] hydrogen sulfate
@<TRIPOS>ATOM
      1 C1         -0.1385   -3.8815    1.2968 C.3       1 <0>        -0.1671
      2 C2         -0.2869   -2.3605    1.3702 C.3       1 <0>        -0.0990
      3 C3         -1.2654   -1.8910    0.2918 C.3       1 <0>        -0.0329
      4 C4         -0.8309   -2.4193   -1.0618 C.3       1 <0>        -0.1056
      5 C5          0.6277   -1.9829   -1.2716 C.3       1 <0>        -0.1161
      6 C6          0.7814   -0.4674   -1.1837 C.3       1 <0>        -0.0659
      7 H1          0.2204   -0.0244   -2.0198 H         1 <0>         0.0730
      8 C7          0.2043    0.0893    0.1260 C.3       1 <0>        -0.0850
      9 H2          0.7589   -0.2910    0.9965 H         1 <0>         0.0855
     10 C8         -1.2483   -0.3410    0.2208 C.3       1 <0>        -0.0875
     11 H3         -1.7273    0.1532   -0.6373 H         1 <0>         0.0787
     12 C9         -1.9762    0.0487    1.5121 C.3       1 <0>        -0.1191
     13 C10        -3.1415   -0.9761    1.5771 C.3       1 <0>        -0.1191
     14 C11        -2.6954   -2.2080    0.7178 C.3       1 <0>         0.2865
     15 C12        -3.5536   -2.3809   -0.4656 C.1       1 <0>        -0.2283
     16 C13        -4.2381   -2.5188   -1.4094 C.1       1 <0>        -0.1361
     17 O1         -2.7217   -3.3861    1.5261 O.3       1 <0>        -0.7577
     18 S1         -4.1110   -3.9796    1.7103 S.o2      1 <0>         2.7620
     19 O2         -3.9945   -4.9839    2.7088 O.2       1 <0>        -1.0721
     20 O3         -5.0077   -2.8841    1.8327 O.2       1 <0>        -1.0843
     21 O4         -4.4707   -4.6935    0.4152 O.3       1 <0>        -1.0948
     22 C14         0.2898    1.6180    0.1010 C.3       1 <0>        -0.1161
     23 C15         1.7603    2.0412    0.0832 C.3       1 <0>        -0.0979
     24 C16         2.4446    1.3717   -1.1099 C.2       1 <0>        -0.0198
     25 C17         3.1919    2.1286   -1.8946 C.2       1 <0>        -0.2538
     26 C18         3.9064    1.5219   -3.0232 C.2       1 <0>         0.3899
     27 O5          4.2750    2.1799   -3.9736 O.2       1 <0>        -0.4653
     28 C19         4.1595    0.0294   -2.9396 C.3       1 <0>        -0.1679
     29 C20         2.8329   -0.6399   -2.5821 C.3       1 <0>        -0.1119
     30 C21         2.2692   -0.1064   -1.2773 C.3       1 <0>        -0.0584
     31 H4          2.8529   -0.5614   -0.4635 H         1 <0>         0.0920
     32 H5          0.5650   -4.2191    2.0721 H         1 <0>         0.0409
     33 H6          0.2446   -4.1651    0.3054 H         1 <0>         0.0474
     34 H7         -1.1184   -4.3538    1.4601 H         1 <0>         0.0928
     35 H8         -0.6700   -2.0769    2.3616 H         1 <0>         0.0649
     36 H9          0.6930   -1.8882    1.2070 H         1 <0>         0.0642
     37 H10        -0.9121   -3.5163   -1.0705 H         1 <0>         0.0760
     38 H11        -1.4780   -1.9975   -1.8450 H         1 <0>         0.0664
     39 H12         1.2622   -2.4407   -0.4984 H         1 <0>         0.0711
     40 H13         0.9685   -2.3084   -2.2655 H         1 <0>         0.0632
     41 H14        -1.2856   -0.0409    2.3636 H         1 <0>         0.0697
     42 H15        -2.3298    1.0874    1.4346 H         1 <0>         0.0667
     43 H16        -3.3153   -1.2677    2.6234 H         1 <0>         0.0815
     44 H17        -4.0545   -0.5197    1.1672 H         1 <0>         0.0862
     45 H18        -4.8794   -2.6480   -2.2937 H         1 <0>         0.2272
     46 H19        -0.2142    1.9987   -0.7996 H         1 <0>         0.0645
     47 H20        -0.2007    2.0274    0.9964 H         1 <0>         0.0727
     48 H21         1.8259    3.1351   -0.0121 H         1 <0>         0.0745
     49 H22         2.2442    1.7250    1.0191 H         1 <0>         0.0839
     50 H23         3.2758    3.2080   -1.7000 H         1 <0>         0.1342
     51 H24         4.5255   -0.3354   -3.9107 H         1 <0>         0.0914
     52 H25         4.9136   -0.1718   -2.1644 H         1 <0>         0.0990
     53 H26         2.0996   -0.4497   -3.3797 H         1 <0>         0.0705
     54 H27         2.9861   -1.7240   -2.4757 H         1 <0>         0.0853
@<TRIPOS>BOND
     1    1    2 1
     2    1   32 1
     3    1   33 1
     4    1   34 1
     5    2    3 1
     6    2   35 1
     7    2   36 1
     8    3   10 1
     9    3   14 1
    10    3    4 1
    11    4    5 1
    12    4   37 1
    13    4   38 1
    14    5    6 1
    15    5   39 1
    16    5   40 1
    17    6    7 1
    18    6   30 1
    19    6    8 1
    20    8    9 1
    21    8   10 1
    22    8   22 1
    23   10   11 1
    24   10   12 1
    25   12   13 1
    26   12   41 1
    27   12   42 1
    28   13   14 1
    29   13   43 1
    30   13   44 1
    31   14   15 1
    32   14   17 1
    33   15   16 3
    34   16   45 1
    35   17   18 1
    36   18   19 2
    37   18   20 2
    38   18   21 1
    39   22   23 1
    40   22   46 1
    41   22   47 1
    42   23   24 1
    43   23   48 1
    44   23   49 1
    45   24   30 1
    46   24   25 2
    47   25   26 1
    48   25   50 1
    49   26   27 2
    50   26   28 1
    51   28   29 1
    52   28   51 1
    53   28   52 1
    54   29   30 1
    55   29   53 1
    56   29   54 1
    57   30   31 1
@<TRIPOS>MOLECULE
ZINC39698646
   51    53     0     0     0
SMALL
USER_CHARGES

@<TRIPOS>ATOM
      1 C1         -0.0184    1.5028    0.0103 C.3       1 <0>        -0.0446
      2 C2          0.0021   -0.0041    0.0020 C.2       1 <0>         0.0098
      3 C3         -1.1016   -0.8059    0.0028 C.2       1 <0>        -0.1500
      4 C4         -0.5859   -2.1856   -0.0077 C.2       1 <0>        -0.2466
      5 C5          0.8040   -2.0703   -0.0138 C.2       1 <0>         0.2350
      6 O1          1.1057   -0.7610   -0.0131 O.3       1 <0>        -0.1631
      7 N1          1.5472   -3.1877   -0.0242 N.2       1 <0>        -0.5061
      8 C6          0.9965   -4.3691   -0.0287 C.2       1 <0>         0.3982
      9 N2         -0.3481   -4.5437   -0.0236 N.am      1 <0>        -0.5267
     10 C7         -1.1710   -3.4697   -0.0126 C.2       1 <0>         0.5530
     11 O2         -2.3823   -3.6073   -0.0079 O.2       1 <0>        -0.4684
     12 C8         -0.9104   -5.8965   -0.0300 C.3       1 <0>         0.0995
     13 H1         -1.9988   -5.8375   -0.0245 H         1 <0>         0.1422
     14 C9         -0.4344   -6.6526    1.2120 C.3       1 <0>        -0.1582
     15 C10        -0.4530   -6.6248   -1.2675 C.2       1 <0>         0.5083
     16 O3          0.2714   -6.0686   -2.0655 O.2       1 <0>        -0.5211
     17 N3         -0.8489   -7.8942   -1.4874 N.am      1 <0>        -0.7203
     18 C11        -0.4042   -8.6022   -2.6904 C.3       1 <0>         0.1516
     19 H2          0.6119   -8.2950   -2.9380 H         1 <0>         0.0897
     20 C12        -1.3372   -8.2646   -3.8551 C.3       1 <0>        -0.1342
     21 C13        -0.8727   -9.0040   -5.1114 C.3       1 <0>        -0.1165
     22 C14        -0.9016  -10.5122   -4.8556 C.3       1 <0>        -0.1180
     23 C15         0.0314  -10.8498   -3.6909 C.3       1 <0>        -0.0838
     24 H3          1.0475  -10.5426   -3.9385 H         1 <0>         0.0723
     25 C16        -0.4330  -10.1104   -2.4345 C.3       1 <0>        -0.0918
     26 H4          0.2317  -10.3509   -1.6048 H         1 <0>         0.0768
     27 C17        -1.8593  -10.5415   -2.0869 C.3       1 <0>        -0.1571
     28 C18         0.0026  -12.3580   -3.4350 C.3       1 <0>        -0.1486
     29 C19        -2.5070   -0.3829    0.0125 C.2       1 <0>         0.5379
     30 O4         -2.7875    0.8085    0.0207 O.co2     1 <0>        -0.6900
     31 O5         -3.3986   -1.2215    0.0124 O.co2     1 <0>        -0.6530
     32 H5          1.0042    1.8801    0.0026 H         1 <0>         0.0612
     33 H6         -0.5455    1.8639   -0.8728 H         1 <0>         0.0917
     34 H7         -0.5286    1.8543    0.9071 H         1 <0>         0.0916
     35 H8          1.6343   -5.2406   -0.0371 H         1 <0>         0.2025
     36 H9         -0.7652   -6.1258    2.1071 H         1 <0>         0.0815
     37 H10        -0.8528   -7.6591    1.2073 H         1 <0>         0.0817
     38 H11         0.6540   -6.7115    1.2066 H         1 <0>         0.0703
     39 H12        -1.4283   -8.3390   -0.8492 H         1 <0>         0.4010
     40 H13        -2.3533   -8.5717   -3.6074 H         1 <0>         0.0683
     41 H14        -1.3166   -7.1901   -4.0374 H         1 <0>         0.0686
     42 H15        -1.5374   -8.7635   -5.9412 H         1 <0>         0.0650
     43 H16         0.1433   -8.6968   -5.3591 H         1 <0>         0.0637
     44 H17        -1.9177  -10.8193   -4.6079 H         1 <0>         0.0665
     45 H18        -0.5707  -11.0389   -5.7506 H         1 <0>         0.0622
     46 H19        -2.5240  -10.3010   -2.9167 H         1 <0>         0.0660
     47 H20        -1.8798  -11.6159   -1.9046 H         1 <0>         0.0621
     48 H21        -2.1902  -10.0147   -1.1919 H         1 <0>         0.0523
     49 H22         0.3334  -12.8847   -4.3301 H         1 <0>         0.0545
     50 H23         0.6672  -12.5985   -2.6053 H         1 <0>         0.0543
     51 H24        -1.0135  -12.6651   -3.1874 H         1 <0>         0.0585
@<TRIPOS>BOND
     1    1    2 1
     2    1   32 1
     3    1   33 1
     4    1   34 1
     5    2    6 1
     6    2    3 2
     7    3    4 1
     8    3   29 1
     9    4   10 1
    10    4    5 2
    11    5    6 1
    12    5    7 1
    13    7    8 2
    14    8    9 1
    15    8   35 1
    16    9   10 am
    17    9   12 1
    18   10   11 2
    19   12   13 1
    20   12   14 1
    21   12   15 1
    22   14   36 1
    23   14   37 1
    24   14   38 1
    25   15   16 2
    26   15   17 am
    27   17   18 1
    28   17   39 1
    29   18   19 1
    30   18   25 1
    31   18   20 1
    32   20   21 1
    33   20   40 1
    34   20   41 1
    35   21   22 1
    36   21   42 1
    37   21   43 1
    38   22   23 1
    39   22   44 1
    40   22   45 1
    41   23   24 1
    42   23   25 1
    43   23   28 1
    44   25   26 1
    45   25   27 1
    46   27   46 1
    47   27   47 1
    48   27   48 1
    49   28   49 1
    50   28   50 1
    51   28   51 1
    52   29   30 2
    53   29   31 1
@<TRIPOS>MOLECULE
ZINC55628612
   44    46     0     0     0
SMALL
USER_CHARGES

@<TRIPOS>ATOM
      1 C1         -0.0518    1.3604    0.0182 C.ar      1 <0>        -0.2298
      2 C2          1.1276    2.0886    0.0326 C.ar      1 <0>        -0.0456
      3 C3          2.3470    1.4435    0.0290 C.ar      1 <0>        -0.2643
      4 C4          2.4000    0.0551    0.0110 C.ar      1 <0>         0.3236
      5 C5          1.2077   -0.6851   -0.0031 C.ar      1 <0>        -0.2090
      6 C6         -0.0194   -0.0166    0.0007 C.ar      1 <0>        -0.0441
      7 C7          1.2496   -2.1587   -0.0227 C.2       1 <0>         0.5952
      8 O1          1.8850   -2.7602    0.8217 O.2       1 <0>        -0.5242
      9 N1          0.5836   -2.8391   -0.9767 N.am      1 <0>        -0.6187
     10 C8         -0.0777   -2.1284   -2.0796 C.3       1 <0>         0.1077
     11 C9          0.4143   -2.7123   -3.4076 C.3       1 <0>        -0.1345
     12 C10         0.1879   -4.2259   -3.4099 C.3       1 <0>        -0.1087
     13 C11         0.9905   -4.8651   -2.2744 C.3       1 <0>         0.0897
     14 H1          2.0483   -4.6359   -2.4027 H         1 <0>         0.0603
     15 C12         0.5102   -4.3060   -0.9368 C.3       1 <0>         0.0868
     16 O2          0.8033   -6.2816   -2.2967 O.3       1 <0>        -0.5682
     17 N2          3.6263   -0.5966    0.0065 N.2       1 <0>        -1.0609
     18 S1          5.0305    0.2811    0.0226 S.o2      1 <0>         2.6009
     19 O3          5.0870    0.9797   -1.2135 O.2       1 <0>        -1.0193
     20 O4          5.0788    0.9470    1.2770 O.2       1 <0>        -1.0161
     21 C13         6.3645   -0.8700    0.0119 C.ar      1 <0>        -0.5603
     22 C14         6.8796   -1.3411    1.2048 C.ar      1 <0>        -0.0629
     23 C15         7.9283   -2.2454    1.1976 C.ar      1 <0>         0.1059
     24 C16         8.4603   -2.6779   -0.0049 C.ar      1 <0>        -0.1538
     25 C17         7.9433   -2.2057   -1.1989 C.ar      1 <0>         0.1042
     26 C18         6.8912   -1.3054   -1.1894 C.ar      1 <0>        -0.0661
     27 F1          8.4616   -2.6270   -2.3733 F         1 <0>        -0.1311
     28 F2          8.4322   -2.7051    2.3638 F         1 <0>        -0.1303
     29 H2         -1.0011    1.8753    0.0253 H         1 <0>         0.1082
     30 H3          1.0915    3.1679    0.0462 H         1 <0>         0.1071
     31 H4          3.2613    2.0182    0.0399 H         1 <0>         0.1028
     32 H5         -0.9414   -0.5790   -0.0105 H         1 <0>         0.1096
     33 H6         -1.1573   -2.2566   -2.0016 H         1 <0>         0.0611
     34 H7          0.1709   -1.0682   -2.0322 H         1 <0>         0.0991
     35 H8         -0.1391   -2.2605   -4.2309 H         1 <0>         0.0789
     36 H9          1.4776   -2.5034   -3.5253 H         1 <0>         0.0718
     37 H10        -0.8724   -4.4347   -3.2674 H         1 <0>         0.0682
     38 H11         0.5144   -4.6405   -4.3636 H         1 <0>         0.0676
     39 H12         1.1465   -4.6820   -0.1356 H         1 <0>         0.0904
     40 H13        -0.5204   -4.6157   -0.7636 H         1 <0>         0.0648
     41 H14         1.2842   -6.7529   -1.6026 H         1 <0>         0.3787
     42 H15         6.4643   -1.0036    2.1428 H         1 <0>         0.1578
     43 H16         9.2785   -3.3829   -0.0114 H         1 <0>         0.1511
     44 H17         6.4848   -0.9403   -2.1210 H         1 <0>         0.1565
@<TRIPOS>BOND
     1    1    6 ar
     2    1    2 ar
     3    1   29 1
     4    2    3 ar
     5    2   30 1
     6    3    4 ar
     7    3   31 1
     8    4    5 ar
     9    4   17 1
    10    5    6 ar
    11    5    7 1
    12    6   32 1
    13    7    8 2
    14    7    9 am
    15    9   15 1
    16    9   10 1
    17   10   11 1
    18   10   33 1
    19   10   34 1
    20   11   12 1
    21   11   35 1
    22   11   36 1
    23   12   13 1
    24   12   37 1
    25   12   38 1
    26   13   14 1
    27   13   15 1
    28   13   16 1
    29   15   39 1
    30   15   40 1
    31   16   41 1
    32   17   18 1
    33   18   19 2
    34   18   20 2
    35   18   21 1
    36   21   26 ar
    37   21   22 ar
    38   22   23 ar
    39   22   42 1
    40   23   24 ar
    41   23   28 1
    42   24   25 ar
    43   24   43 1
    44   25   26 ar
    45   25   27 1
    46   26   44 1
@<TRIPOS>MOLECULE
ZINC63796209
   41    44     0     0     0
SMALL
USER_CHARGES

@<TRIPOS>ATOM
      1 C1         -0.0184    1.5028    0.0103 C.3       1 <0>        -0.0551
      2 C2          0.0021   -0.0041    0.0020 C.2       1 <0>         0.0212
      3 N1          0.0097   -0.8438   -1.0138 N.2       1 <0>        -0.2325
      4 N2          0.0274   -2.0862   -0.7843 N.2       1 <0>        -0.3038
      5 C3          0.0385   -2.5679    0.4430 C.2       1 <0>         0.2476
      6 N3          0.0581   -3.8929    0.8650 N.am      1 <0>        -0.6165
      7 C4          0.0678   -4.8892   -0.0426 C.2       1 <0>         0.5138
      8 O1          0.0594   -4.6302   -1.2274 O.2       1 <0>        -0.4545
      9 C5          0.0890   -6.3249    0.4147 C.3       1 <0>        -0.0942
     10 H1          0.9837   -6.5037    1.0110 H         1 <0>         0.1124
     11 C6         -1.1548   -6.6103    1.2610 C.3       1 <0>        -0.1130
     12 C7         -1.1560   -8.0855    1.6711 C.3       1 <0>        -0.1102
     13 C8         -1.1154   -8.9591    0.4152 C.3       1 <0>         0.0531
     14 N4          0.0929   -8.6489   -0.3595 N.3       1 <0>        -0.5239
     15 C9          0.0944   -7.2496   -0.8047 C.3       1 <0>         0.0869
     16 C10         0.2366   -9.5641   -1.4996 C.3       1 <0>         0.3436
     17 H2         -0.6400   -9.4830   -2.1423 H         1 <0>         0.0337
     18 C11         0.3606  -11.0020   -0.9862 C.3       1 <0>        -0.0624
     19 H3          0.9844  -11.0660   -0.0946 H         1 <0>         0.1162
     20 C12         0.9330  -11.8038   -2.1554 C.2       1 <0>         0.4092
     21 N5          0.0822  -12.7379   -2.3986 N.2       1 <0>        -0.6181
     22 C13        -1.0171  -12.6180   -1.6362 C.2       1 <0>         0.2832
     23 N6         -0.9562  -11.6197   -0.7862 N.2       1 <0>        -0.5835
     24 N7          2.0887  -11.3978   -2.7619 N.2       1 <0>        -0.6681
     25 C14         2.2449  -10.0192   -2.8245 C.2       1 <0>         0.4595
     26 N8          1.4312   -9.2084   -2.2604 N.2       1 <0>        -0.6806
     27 Cl1         3.5965   -9.3714   -3.7004 Cl        1 <0>        -0.0412
     28 S1          0.0307   -1.1577    1.3670 S.3       1 <0>         0.0569
     29 H4          1.0042    1.8801    0.0026 H         1 <0>         0.0924
     30 H5         -0.5455    1.8639   -0.8728 H         1 <0>         0.0990
     31 H6         -0.5286    1.8543    0.9071 H         1 <0>         0.0878
     32 H7         -1.1399   -5.9842    2.1531 H         1 <0>         0.0636
     33 H8         -2.0498   -6.3937    0.6777 H         1 <0>         0.0660
     34 H9         -0.2808   -8.2927    2.2870 H         1 <0>         0.0717
     35 H10        -2.0607   -8.3050    2.2380 H         1 <0>         0.0699
     36 H11        -1.1017  -10.0101    0.7042 H         1 <0>         0.1032
     37 H12        -1.9978   -8.7614   -0.1933 H         1 <0>         0.0263
     38 H13        -0.7933   -7.0600   -1.4082 H         1 <0>         0.0320
     39 H14         0.9865   -7.0586   -1.4013 H         1 <0>         0.1029
     40 H15        -1.8668  -13.2804   -1.7104 H         1 <0>         0.1785
     41 H16         0.0648   -4.1000    1.8127 H         1 <0>         0.4270
@<TRIPOS>BOND
     1    1    2 1
     2    1   29 1
     3    1   30 1
     4    1   31 1
     5    2   28 1
     6    2    3 2
     7    3    4 1
     8    4    5 2
     9    5    6 1
    10    5   28 1
    11    6    7 am
    12    6   41 1
    13    7    8 2
    14    7    9 1
    15    9   10 1
    16    9   15 1
    17    9   11 1
    18   11   12 1
    19   11   32 1
    20   11   33 1
    21   12   13 1
    22   12   34 1
    23   12   35 1
    24   13   14 1
    25   13   36 1
    26   13   37 1
    27   14   15 1
    28   14   16 1
    29   15   38 1
    30   15   39 1
    31   16   17 1
    32   16   26 1
    33   16   18 1
    34   18   19 1
    35   18   23 1
    36   18   20 1
    37   20   21 2
    38   20   24 1
    39   21   22 1
    40   22   23 2
    41   22   40 1
    42   24   25 1
    43   25   26 2
    44   25   27 1
@<TRIPOS>MOLECULE
ZINC67456150
   50    52     0     0     0
SMALL
USER_CHARGES

@<TRIPOS>ATOM
      1 C1          0.7367    1.3112    0.1063 C.3       1 <0>        -0.1128
      2 C2          0.3834   -0.1507    0.0103 C.ar      1 <0>        -0.0653
      3 C3         -0.1073   -0.6750   -1.1857 C.ar      1 <0>        -0.1217
      4 C4         -0.4319   -2.0300   -1.2671 C.ar      1 <0>        -0.1147
      5 C5         -0.2670   -2.8463   -0.1664 C.ar      1 <0>        -0.1114
      6 C6          0.2191   -2.3268    1.0185 C.ar      1 <0>        -0.1002
      7 C7          0.5502   -0.9799    1.1082 C.ar      1 <0>         0.1614
      8 N1          1.0475   -0.4600    2.3087 N.am      1 <0>        -0.6624
      9 C8          1.7951   -1.2342    3.1199 C.2       1 <0>         0.5356
     10 O1          1.9798   -2.4007    2.8439 O.2       1 <0>        -0.5267
     11 C9          2.4015   -0.6505    4.3700 C.3       1 <0>        -0.0869
     12 H1          2.5605    0.4193    4.2350 H         1 <0>         0.0978
     13 C10         3.7378   -1.3364    4.6621 C.3       1 <0>        -0.0687
     14 C11         3.5067   -2.7518    5.1040 C.2       1 <0>        -0.1546
     15 C12         2.3679   -3.2047    5.5206 C.2       1 <0>        -0.1352
     16 C13         1.1172   -2.3802    5.6104 C.3       1 <0>        -0.0674
     17 C14         1.4603   -0.8860    5.5581 C.3       1 <0>        -0.1447
     18 H2          1.9577   -0.5940    6.4830 H         1 <0>         0.0786
     19 C15         0.2028   -0.0755    5.3766 C.2       1 <0>         0.4978
     20 O2         -0.8524   -0.4759    5.8377 O.co2     1 <0>        -0.6881
     21 O3          0.2407    0.9806    4.7686 O.co2     1 <0>        -0.6987
     22 C16        -0.2833    0.2020   -2.3631 C.2       1 <0>         0.5731
     23 O4          0.6033    0.9668   -2.6892 O.2       1 <0>        -0.5286
     24 N2         -1.4268    0.1532   -3.0747 N.am      1 <0>        -0.6143
     25 C17        -2.5652   -0.6631   -2.6241 C.3       1 <0>         0.0679
     26 C18        -3.8229    0.2133   -2.6350 C.3       1 <0>         0.0457
     27 O5         -3.9538    0.8328   -3.9168 O.3       1 <0>        -0.3806
     28 C19        -2.8800    1.7146   -4.2531 C.3       1 <0>         0.0475
     29 C20        -1.5761    0.9195   -4.3221 C.3       1 <0>         0.0773
     30 H3          1.8004    1.4417   -0.0925 H         1 <0>         0.0776
     31 H4          0.1584    1.8736   -0.6267 H         1 <0>         0.0684
     32 H5          0.5069    1.6755    1.1076 H         1 <0>         0.0695
     33 H6         -0.8123   -2.4396   -2.1911 H         1 <0>         0.1237
     34 H7         -0.5191   -3.8945   -0.2312 H         1 <0>         0.1288
     35 H8          0.3456   -2.9704    1.8765 H         1 <0>         0.1490
     36 H9          0.8542    0.4576    2.5568 H         1 <0>         0.4253
     37 H10         4.3495   -1.3349    3.7599 H         1 <0>         0.0658
     38 H11         4.2585   -0.7923    5.4501 H         1 <0>         0.0757
     39 H12         4.3426   -3.4349    5.0728 H         1 <0>         0.0934
     40 H13         2.3146   -4.2402    5.8227 H         1 <0>         0.0925
     41 H14         0.4608   -2.6275    4.7761 H         1 <0>         0.0669
     42 H15         0.6057   -2.6005    6.5475 H         1 <0>         0.0699
     43 H16        -2.7008   -1.5083   -3.2989 H         1 <0>         0.0785
     44 H17        -2.3794   -1.0259   -1.6132 H         1 <0>         0.1059
     45 H18        -4.6990   -0.4046   -2.4381 H         1 <0>         0.1088
     46 H19        -3.7381    0.9815   -1.8664 H         1 <0>         0.0592
     47 H20        -3.0777    2.1767   -5.2203 H         1 <0>         0.1064
     48 H21        -2.7918    2.4882   -3.4903 H         1 <0>         0.0570
     49 H22        -0.7355    1.6042   -4.4351 H         1 <0>         0.1024
     50 H23        -1.6104    0.2364   -5.1707 H         1 <0>         0.0754
@<TRIPOS>BOND
     1    1    2 1
     2    1   30 1
     3    1   31 1
     4    1   32 1
     5    2    7 ar
     6    2    3 ar
     7    3    4 ar
     8    3   22 1
     9    4    5 ar
    10    4   33 1
    11    5    6 ar
    12    5   34 1
    13    6    7 ar
    14    6   35 1
    15    7    8 1
    16    8    9 am
    17    8   36 1
    18    9   10 2
    19    9   11 1
    20   11   12 1
    21   11   17 1
    22   11   13 1
    23   13   14 1
    24   13   37 1
    25   13   38 1
    26   14   15 2
    27   14   39 1
    28   15   16 1
    29   15   40 1
    30   16   17 1
    31   16   41 1
    32   16   42 1
    33   17   18 1
    34   17   19 1
    35   19   20 2
    36   19   21 1
    37   22   23 2
    38   22   24 am
    39   24   29 1
    40   24   25 1
    41   25   26 1
    42   25   43 1
    43   25   44 1
    44   26   27 1
    45   26   45 1
    46   26   46 1
    47   27   28 1
    48   28   29 1
    49   28   47 1
    50   28   48 1
    51   29   49 1
    52   29   50 1
@<TRIPOS>MOLECULE
ZINC19707408
   43    46     0     0     0
SMALL
USER_CHARGES
(5Z)-5-[(1-methylindol-3-yl)methylene]-1-(p-tolyl)hexahydropyrimidine-2,4,6-trione
@<TRIPOS>ATOM
      1 C1         -1.3208    3.7736    4.2391 C.3       1 <0>        -0.1096
      2 C2         -0.2216    3.0586    3.4964 C.ar      1 <0>        -0.0987
      3 C3         -0.4828    2.4775    2.2691 C.ar      1 <0>        -0.1144
      4 C4          0.5209    1.8159    1.5891 C.ar      1 <0>        -0.0942
      5 C5          1.7962    1.7449    2.1334 C.ar      1 <0>         0.1543
      6 C6          2.0570    2.3347    3.3629 C.ar      1 <0>        -0.1008
      7 C7          1.0477    2.9900    4.0408 C.ar      1 <0>        -0.1151
      8 N1          2.8183    1.0797    1.4429 N.am      1 <0>        -0.5473
      9 C8          3.8689    1.7872    0.9788 C.2       1 <0>         0.5669
     10 O1          3.9380    2.9896    1.1524 O.2       1 <0>        -0.5247
     11 C9          4.9305    1.0651    0.2567 C.2       1 <0>        -0.2912
     12 C10         6.0413    1.7266   -0.2497 C.2       1 <0>         0.0959
     13 C11         6.0851    3.1356   -0.2457 C.2       1 <0>        -0.2069
     14 C12         5.0695    4.0009   -0.6150 C.2       1 <0>         0.1736
     15 N2          5.4881    5.2717   -0.4757 N.pl3     1 <0>        -0.4685
     16 C13         6.7884    5.3115   -0.0121 C.ar      1 <0>         0.0785
     17 C14         7.2218    3.9877    0.1594 C.ar      1 <0>        -0.0633
     18 C15         8.5054    3.7270    0.6273 C.ar      1 <0>        -0.0797
     19 C16         9.3496    4.7757    0.9253 C.ar      1 <0>        -0.1408
     20 C17         8.9229    6.0846    0.7599 C.ar      1 <0>        -0.1144
     21 C18         7.6557    6.3561    0.2898 C.ar      1 <0>        -0.1222
     22 C19         4.6750    6.4531   -0.7748 C.3       1 <0>         0.0712
     23 C20         4.7619   -0.3897    0.0948 C.2       1 <0>         0.5363
     24 O2          5.5966   -1.0541   -0.4905 O.3       1 <0>        -0.5653
     25 N3          3.6572   -0.9652    0.6124 N.2       1 <0>        -0.7061
     26 C21         2.7322   -0.2459    1.2634 C.2       1 <0>         0.6617
     27 O3          1.7620   -0.8255    1.7106 O.2       1 <0>        -0.5818
     28 H1         -2.2511    3.7236    3.6543 H         1 <0>         0.0622
     29 H2         -1.0378    4.8260    4.3887 H         1 <0>         0.0646
     30 H3         -1.4757    3.2931    5.2164 H         1 <0>         0.0662
     31 H4         -1.4739    2.5369    1.8441 H         1 <0>         0.1215
     32 H5          0.3151    1.3580    0.6328 H         1 <0>         0.1211
     33 H6          3.0481    2.2814    3.7886 H         1 <0>         0.1176
     34 H7          1.2499    3.4490    4.9973 H         1 <0>         0.1202
     35 H8          6.8871    1.1512   -0.6540 H         1 <0>         0.1431
     36 H9          4.0914    3.7017   -0.9616 H         1 <0>         0.1691
     37 H10         8.8392    2.7081    0.7570 H         1 <0>         0.1233
     38 H11        10.3471    4.5770    1.2885 H         1 <0>         0.1209
     39 H12         9.5916    6.8990    0.9961 H         1 <0>         0.1212
     40 H13         7.3330    7.3793    0.1661 H         1 <0>         0.1146
     41 H14         5.2608    7.3620   -0.5731 H         1 <0>         0.0854
     42 H15         3.7753    6.4487   -0.1420 H         1 <0>         0.0793
     43 H16         4.3785    6.4355   -1.8339 H         1 <0>         0.0762
@<TRIPOS>BOND
     1    1    2 1
     2    1   28 1
     3    1   29 1
     4    1   30 1
     5    2    7 ar
     6    2    3 ar
     7    3    4 ar
     8    3   31 1
     9    4    5 ar
    10    4   32 1
    11    5    6 ar
    12    5    8 1
    13    6    7 ar
    14    6   33 1
    15    7   34 1
    16    8   26 am
    17    8    9 am
    18    9   10 2
    19    9   11 1
    20   11   12 2
    21   11   23 1
    22   12   13 1
    23   12   35 1
    24   13   17 1
    25   13   14 2
    26   14   15 1
    27   14   36 1
    28   15   16 1
    29   15   22 1
    30   16   21 ar
    31   16   17 ar
    32   17   18 ar
    33   18   19 ar
    34   18   37 1
    35   19   20 ar
    36   19   38 1
    37   20   21 ar
    38   20   39 1
    39   21   40 1
    40   22   41 1
    41   22   42 1
    42   22   43 1
    43   23   24 1
    44   23   25 2
    45   25   26 1
    46   26   27 2
@<TRIPOS>MOLECULE
ZINC13161177
   50    52     0     0     0
SMALL
USER_CHARGES

@<TRIPOS>ATOM
      1 C1         -0.0167    1.3781    0.0096 C.ar      1 <0>        -0.1342
      2 C2          1.1709    2.0855    0.0021 C.ar      1 <0>        -0.1213
      3 C3          2.3773    1.4107   -0.0130 C.ar      1 <0>        -0.1192
      4 C4          2.3960    0.0285   -0.0201 C.ar      1 <0>        -0.0620
      5 C5          1.2084   -0.6789   -0.0117 C.ar      1 <0>        -0.1144
      6 C6          0.0021   -0.0041    0.0020 C.ar      1 <0>        -0.1206
      7 C7          3.7112   -0.7071   -0.0376 C.3       1 <0>        -0.0351
      8 C8          3.7882   -1.5892   -1.2868 C.3       1 <0>        -0.1432
      9 C9          5.0803   -2.3633   -1.2720 C.2       1 <0>         0.3947
     10 O1          5.6055   -2.6835   -2.3268 O.3       1 <0>        -0.5845
     11 C10         5.6826   -2.7173   -0.0652 C.2       1 <0>        -0.5076
     12 C11         6.9444   -3.4739   -0.0820 C.2       1 <0>         0.2522
     13 N1          7.5139   -3.8089    1.0327 N.2       1 <0>        -0.5605
     14 C12         8.7702   -4.5622    1.0159 C.3       1 <0>         0.0469
     15 C13         9.8874   -3.7042    1.6131 C.3       1 <0>        -0.1027
     16 C14        11.1995   -4.4910    1.5956 C.3       1 <0>         0.0584
     17 N2         12.2721   -3.6672    2.1689 N.3       1 <0>        -0.5362
     18 C15        12.5575   -2.5050    1.3150 C.3       1 <0>         0.0139
     19 C16        13.6364   -1.6443    1.9776 C.3       1 <0>         0.0641
     20 O2         14.7995   -2.4431    2.2114 O.3       1 <0>        -0.3891
     21 C17        14.5578   -3.5834    3.0400 C.3       1 <0>         0.0643
     22 C18        13.4882   -4.4637    2.3881 C.3       1 <0>         0.0167
     23 C19         5.1106   -2.3666    1.1573 C.2       1 <0>         0.3921
     24 O3          5.6623   -2.6894    2.1978 O.2       1 <0>        -0.5249
     25 C20         3.8191   -1.5930    1.2066 C.3       1 <0>        -0.1481
     26 H1         -0.9591    1.9053    0.0259 H         1 <0>         0.1154
     27 H2          1.1563    3.1654    0.0076 H         1 <0>         0.1171
     28 H3          3.3051    1.9634   -0.0196 H         1 <0>         0.1207
     29 H4          1.2231   -1.7588   -0.0176 H         1 <0>         0.1224
     30 H5         -0.9258   -0.5567    0.0082 H         1 <0>         0.1176
     31 H6          4.5308    0.0114   -0.0458 H         1 <0>         0.0793
     32 H7          2.9481   -2.2837   -1.2939 H         1 <0>         0.0772
     33 H8          3.7499   -0.9622   -2.1776 H         1 <0>         0.0707
     34 H9          7.3959   -3.7502   -1.0234 H         1 <0>         0.0591
     35 H10         8.6562   -5.4720    1.6054 H         1 <0>         0.0585
     36 H11         9.0231   -4.8243   -0.0115 H         1 <0>         0.0144
     37 H12        10.0014   -2.7945    1.0236 H         1 <0>         0.0540
     38 H13         9.6346   -3.4421    2.6404 H         1 <0>         0.0753
     39 H14        11.0855   -5.4007    2.1850 H         1 <0>         0.0744
     40 H15        11.4523   -4.7531    0.5682 H         1 <0>         0.0309
     41 H16        12.9109   -2.8463    0.3420 H         1 <0>         0.0406
     42 H17        11.6495   -1.9157    1.1870 H         1 <0>         0.0924
     43 H18        13.8921   -0.8123    1.3215 H         1 <0>         0.0971
     44 H19        13.2628   -1.2590    2.9264 H         1 <0>         0.0604
     45 H20        15.4798   -4.1537    3.1522 H         1 <0>         0.0953
     46 H21        14.2110   -3.2544    4.0196 H         1 <0>         0.0593
     47 H22        13.2596   -5.3042    3.0434 H         1 <0>         0.0849
     48 H23        13.8565   -4.8363    1.4323 H         1 <0>         0.0398
     49 H24         3.8030   -0.9689    2.1000 H         1 <0>         0.0692
     50 H25         2.9795   -2.2876    1.2324 H         1 <0>         0.0743
@<TRIPOS>BOND
     1    1    6 ar
     2    1    2 ar
     3    1   26 1
     4    2    3 ar
     5    2   27 1
     6    3    4 ar
     7    3   28 1
     8    4    5 ar
     9    4    7 1
    10    5    6 ar
    11    5   29 1
    12    6   30 1
    13    7   25 1
    14    7    8 1
    15    7   31 1
    16    8    9 1
    17    8   32 1
    18    8   33 1
    19    9   10 1
    20    9   11 2
    21   11   23 1
    22   11   12 1
    23   12   34 1
    24   12   13 2
    25   13   14 1
    26   14   15 1
    27   14   35 1
    28   14   36 1
    29   15   16 1
    30   15   37 1
    31   15   38 1
    32   16   17 1
    33   16   39 1
    34   16   40 1
    35   17   22 1
    36   17   18 1
    37   18   19 1
    38   18   41 1
    39   18   42 1
    40   19   20 1
    41   19   43 1
    42   19   44 1
    43   20   21 1
    44   21   22 1
    45   21   45 1
    46   21   46 1
    47   22   47 1
    48   22   48 1
    49   23   24 2
    50   23   25 1
    51   25   49 1
    52   25   50 1
@<TRIPOS>MOLECULE
ZINC49146576
   34    36     0     0     0
SMALL
USER_CHARGES

@<TRIPOS>ATOM
      1 C1         -0.0187    1.5258    0.0104 C.3       1 <0>        -0.1719
      2 C2          0.0021   -0.0041    0.0020 C.3       1 <0>         0.2294
      3 H1          0.5293   -0.3651    0.8851 H         1 <0>         0.1213
      4 C3          0.7074   -0.4901   -1.2379 C.2       1 <0>        -0.2159
      5 C4          1.8179   -1.2597   -1.3413 C.2       1 <0>        -0.1197
      6 C5          2.2932   -1.5861   -2.5982 C.2       1 <0>        -0.1645
      7 C6          1.6330   -1.1257   -3.6901 C.2       1 <0>        -0.1411
      8 S1          0.2921   -0.2075   -2.9510 S.3       1 <0>         0.2184
      9 Cl1         1.9942   -1.3714   -5.3703 Cl        1 <0>         0.0004
     10 N1         -1.3723   -0.5112    0.0124 N.pl3     1 <0>        -0.4565
     11 C7         -1.9510   -1.3089    0.9606 C.2       1 <0>         0.2040
     12 N2         -3.1806   -1.5250    0.5877 N.2       1 <0>        -0.2843
     13 N3         -3.4172   -0.9231   -0.5229 N.2       1 <0>        -0.2937
     14 C8         -2.3432   -0.2805   -0.9195 C.2       1 <0>         0.1461
     15 S2         -2.1839    0.6926   -2.3797 S.3       1 <0>         0.0741
     16 C9         -3.8186    0.5858   -3.1588 C.3       1 <0>        -0.1654
     17 C10        -3.8196    1.3858   -4.4359 C.2       1 <0>         0.5153
     18 O1         -2.8110    1.9735   -4.7879 O.co2     1 <0>        -0.6716
     19 O2         -4.8290    1.4454   -5.1171 O.co2     1 <0>        -0.6713
     20 C11        -1.2889   -1.8401    2.2058 C.3       1 <0>        -0.0847
     21 C12        -2.0571   -2.8781    3.0264 C.3       1 <0>        -0.1484
     22 C13        -1.9011   -1.4500    3.5527 C.3       1 <0>        -0.1580
     23 H2          1.0039    1.9031    0.0027 H         1 <0>         0.0883
     24 H3         -0.5459    1.8868   -0.8726 H         1 <0>         0.0840
     25 H4         -0.5289    1.8773    0.9072 H         1 <0>         0.0731
     26 H5          2.3245   -1.6127   -0.4553 H         1 <0>         0.1324
     27 H6          3.1764   -2.1977   -2.7087 H         1 <0>         0.1314
     28 H7         -4.0471   -0.4562   -3.3826 H         1 <0>         0.0934
     29 H8         -4.5716    0.9851   -2.4793 H         1 <0>         0.0980
     30 H9         -0.2047   -1.9398    2.1557 H         1 <0>         0.1216
     31 H10        -3.0413   -3.1768    2.6656 H         1 <0>         0.1098
     32 H11        -1.4782   -3.6611    3.5163 H         1 <0>         0.1027
     33 H12        -1.2195   -1.2933    4.3888 H         1 <0>         0.1032
     34 H13        -2.7826   -0.8091    3.5381 H         1 <0>         0.1002
@<TRIPOS>BOND
     1    1    2 1
     2    1   23 1
     3    1   24 1
     4    1   25 1
     5    2    3 1
     6    2    4 1
     7    2   10 1
     8    4    8 1
     9    4    5 2
    10    5    6 1
    11    5   26 1
    12    6    7 2
    13    6   27 1
    14    7    8 1
    15    7    9 1
    16   10   14 1
    17   10   11 1
    18   11   12 2
    19   11   20 1
    20   12   13 1
    21   13   14 2
    22   14   15 1
    23   15   16 1
    24   16   17 1
    25   16   28 1
    26   16   29 1
    27   17   18 2
    28   17   19 1
    29   20   22 1
    30   20   21 1
    31   20   30 1
    32   21   22 1
    33   21   31 1
    34   21   32 1
    35   22   33 1
    36   22   34 1
@<TRIPOS>MOLECULE
ZINC41213462
   27    28     0     0     0
SMALL
USER_CHARGES

@<TRIPOS>ATOM
      1 C1          0.8945    1.4045    0.4437 C.3       1 <0>         0.0236
      2 O1          0.8471   -0.0231    0.4032 O.3       1 <0>        -0.3013
      3 C2          1.2626   -0.6216   -0.7431 C.ar      1 <0>         0.1712
      4 C3          1.7124    0.1531   -1.8050 C.ar      1 <0>        -0.2104
      5 C4          2.1349   -0.4492   -2.9697 C.ar      1 <0>        -0.0254
      6 C5          2.1110   -1.8427   -3.0824 C.ar      1 <0>        -0.0864
      7 C6          1.6581   -2.6187   -2.0114 C.ar      1 <0>         0.0020
      8 C7          1.2418   -2.0074   -0.8481 C.ar      1 <0>        -0.1323
      9 Br1         0.6349   -3.0554    0.6043 Br        1 <0>        -0.0335
     10 C8          2.5613   -2.4911   -4.3260 C.2       1 <0>         0.1866
     11 N1          2.5383   -3.7864   -4.4286 N.2       1 <0>        -0.2270
     12 N2          3.0662   -4.4083   -5.5676 N.pl3     1 <0>        -0.3521
     13 C9          4.4045   -4.3502   -5.8356 C.2       1 <0>         0.4405
     14 O2          5.2466   -3.6927   -5.0094 O.3       1 <0>        -0.6190
     15 C10         4.8780   -4.9814   -6.9739 C.2       1 <0>        -0.1049
     16 N3          4.0319   -5.6199   -7.7681 N.2       1 <0>        -0.1528
     17 N4          2.7745   -5.6673   -7.5046 N.2       1 <0>        -0.3362
     18 C11         2.2633   -5.0812   -6.4184 C.2       1 <0>         0.4418
     19 S1          0.5825   -5.1785   -6.1079 S.2       1 <0>        -0.6455
     20 H1          1.9214    1.7383    0.2947 H         1 <0>         0.0590
     21 H2          0.2620    1.8116   -0.3451 H         1 <0>         0.0593
     22 H3          0.5363    1.7526    1.4126 H         1 <0>         0.1030
     23 H4          1.7306    1.2294   -1.7174 H         1 <0>         0.1423
     24 H5          2.4837    0.1541   -3.7947 H         1 <0>         0.1402
     25 H6          1.6376   -3.6953   -2.0941 H         1 <0>         0.1550
     26 H7          2.9106   -1.8900   -5.1525 H         1 <0>         0.1213
     27 H8          5.9308   -4.9527   -7.2128 H         1 <0>         0.1808
@<TRIPOS>BOND
     1    1    2 1
     2    1   20 1
     3    1   21 1
     4    1   22 1
     5    2    3 1
     6    3    8 ar
     7    3    4 ar
     8    4    5 ar
     9    4   23 1
    10    5    6 ar
    11    5   24 1
    12    6    7 ar
    13    6   10 1
    14    7    8 ar
    15    7   25 1
    16    8    9 1
    17   10   11 2
    18   10   26 1
    19   11   12 1
    20   12   18 1
    21   12   13 1
    22   13   14 1
    23   13   15 2
    24   15   16 1
    25   15   27 1
    26   16   17 2
    27   17   18 1
    28   18   19 2
@<TRIPOS>MOLECULE
ZINC64786780
   42    45     0     0     0
SMALL
USER_CHARGES

@<TRIPOS>ATOM
      1 C1          1.4883    1.2256   -2.3864 C.3       1 <0>        -0.1071
      2 C2          1.2200   -0.1887   -1.9406 C.ar      1 <0>        -0.1252
      3 C3          1.0851   -1.1944   -2.8801 C.ar      1 <0>        -0.0899
      4 C4          0.8391   -2.4916   -2.4748 C.ar      1 <0>        -0.1551
      5 C5          0.7277   -2.7855   -1.1221 C.ar      1 <0>         0.1765
      6 C6          0.8642   -1.7734   -0.1811 C.ar      1 <0>        -0.1625
      7 C7          1.1148   -0.4791   -0.5927 C.ar      1 <0>        -0.0936
      8 N1          0.4781   -4.0987   -0.7082 N.am      1 <0>        -0.5663
      9 C8          0.4387   -4.5317    0.6935 C.3       1 <0>         0.1003
     10 C9         -0.2808   -5.8987    0.6824 C.3       1 <0>        -0.1128
     11 C10         0.0054   -6.3940   -0.7542 C.3       1 <0>        -0.0743
     12 C11         0.2380   -5.1244   -1.5431 C.2       1 <0>         0.5380
     13 O1          0.2139   -5.0442   -2.7531 O.2       1 <0>        -0.4829
     14 C12        -1.1839   -7.1402   -1.3016 C.2       1 <0>         0.3768
     15 O2         -1.3399   -8.4571   -1.0306 O.3       1 <0>        -0.7377
     16 N2         -2.0551   -6.5226   -2.0299 N.2       1 <0>        -0.4388
     17 N3         -3.0931   -7.2395   -2.6393 N.pl3     1 <0>        -0.2744
     18 C13        -2.9664   -8.3871   -3.3590 C.2       1 <0>         0.2675
     19 N4         -4.1339   -8.7825   -3.7804 N.2       1 <0>        -0.5310
     20 C14        -5.0890   -7.9147   -3.3592 C.ar      1 <0>         0.0385
     21 C15        -4.4353   -6.9154   -2.6159 C.ar      1 <0>         0.0537
     22 C16        -5.1711   -5.8839   -2.0492 C.ar      1 <0>        -0.0874
     23 C17        -6.5393   -5.8488   -2.2169 C.ar      1 <0>        -0.1338
     24 C18        -7.1841   -6.8369   -2.9471 C.ar      1 <0>        -0.1424
     25 C19        -6.4756   -7.8554   -3.5196 C.ar      1 <0>        -0.0752
     26 H1          2.5641    1.3874   -2.4536 H         1 <0>         0.0643
     27 H2          1.0343    1.3909   -3.3634 H         1 <0>         0.0627
     28 H3          1.0606    1.9214   -1.6646 H         1 <0>         0.0616
     29 H4          1.1718   -0.9651   -3.9319 H         1 <0>         0.1225
     30 H5          0.7331   -3.2765   -3.2091 H         1 <0>         0.1563
     31 H6          0.7777   -1.9987    0.8716 H         1 <0>         0.1233
     32 H7          1.2251    0.3078    0.1388 H         1 <0>         0.1214
     33 H8          1.4508   -4.6413    1.0831 H         1 <0>         0.0795
     34 H9         -0.1219   -3.8153    1.2940 H         1 <0>         0.0838
     35 H10         0.1521   -6.5734    1.4211 H         1 <0>         0.0968
     36 H11        -1.3514   -5.7774    0.8472 H         1 <0>         0.0862
     37 H12        -2.0337   -8.8959   -3.5530 H         1 <0>         0.1942
     38 H13        -4.6744   -5.1126   -1.4793 H         1 <0>         0.1134
     39 H14        -7.1131   -5.0468   -1.7765 H         1 <0>         0.1166
     40 H15        -8.2564   -6.7969   -3.0699 H         1 <0>         0.1162
     41 H16        -6.9880   -8.6201   -4.0845 H         1 <0>         0.1172
     42 H17         0.8936   -7.0257   -0.7701 H         1 <0>         0.1229
@<TRIPOS>BOND
     1    1    2 1
     2    1   26 1
     3    1   27 1
     4    1   28 1
     5    2    7 ar
     6    2    3 ar
     7    3    4 ar
     8    3   29 1
     9    4    5 ar
    10    4   30 1
    11    5    6 ar
    12    5    8 1
    13    6    7 ar
    14    6   31 1
    15    7   32 1
    16    8   12 am
    17    8    9 1
    18    9   10 1
    19    9   33 1
    20    9   34 1
    21   10   11 1
    22   10   35 1
    23   10   36 1
    24   11   12 1
    25   11   14 1
    26   11   42 1
    27   12   13 2
    28   14   15 1
    29   14   16 2
    30   16   17 1
    31   17   21 1
    32   17   18 1
    33   18   19 2
    34   18   37 1
    35   19   20 1
    36   20   25 ar
    37   20   21 ar
    38   21   22 ar
    39   22   23 ar
    40   22   38 1
    41   23   24 ar
    42   23   39 1
    43   24   25 ar
    44   24   40 1
    45   25   41 1
@<TRIPOS>MOLECULE
ZINC20588972
   32    34     0     0     0
SMALL
USER_CHARGES
5-propyl-4-(8-quinolyl)-1,2,4-triazole-3-thiol
@<TRIPOS>ATOM
      1 C1          1.4071    2.0658    0.0037 C.3       1 <0>        -0.1487
      2 C2         -0.0263    1.5309    0.0145 C.3       1 <0>        -0.1191
      3 C3          0.0001    0.0012    0.0021 C.3       1 <0>        -0.0167
      4 C4         -1.4117   -0.5257    0.0127 C.2       1 <0>         0.1371
      5 N1         -2.1463   -0.7879   -1.0313 N.2       1 <0>        -0.2957
      6 N2         -3.3004   -1.2175   -0.6640 N.2       1 <0>        -0.3473
      7 C5         -3.3678   -1.2540    0.6468 C.2       1 <0>         0.3898
      8 N3         -2.1611   -0.8179    1.1216 N.pl3     1 <0>        -0.4481
      9 C6         -1.7737   -0.6933    2.4616 C.ar      1 <0>         0.1902
     10 C7         -1.9889    0.4860    3.1390 C.ar      1 <0>        -0.0874
     11 C8         -1.6142    0.6215    4.4726 C.ar      1 <0>        -0.1014
     12 C9         -1.0145   -0.4036    5.1394 C.ar      1 <0>        -0.0988
     13 C10        -0.7729   -1.6200    4.4812 C.ar      1 <0>        -0.0963
     14 C11        -1.1547   -1.7736    3.1260 C.ar      1 <0>         0.1408
     15 N4         -0.9261   -2.9296    2.4969 N.ar      1 <0>        -0.4490
     16 C12        -0.3512   -3.9366    3.1085 C.ar      1 <0>         0.1274
     17 C13         0.0488   -3.8529    4.4405 C.ar      1 <0>        -0.1745
     18 C14        -0.1554   -2.6992    5.1421 C.ar      1 <0>        -0.0610
     19 S1         -4.7480   -1.7730    1.6113 S.3       1 <0>        -0.8112
     20 H1          1.3882    3.1656    0.0126 H         1 <0>         0.0539
     21 H2          1.9224    1.7153   -0.9027 H         1 <0>         0.0558
     22 H3          1.9412    1.7010    0.8935 H         1 <0>         0.0518
     23 H4         -0.5417    1.8815    0.9209 H         1 <0>         0.0581
     24 H5         -0.5605    1.8957   -0.8753 H         1 <0>         0.0696
     25 H6          0.5155   -0.3493   -0.9044 H         1 <0>         0.0879
     26 H7          0.5344   -0.3636    0.8918 H         1 <0>         0.0659
     27 H8         -2.4588    1.3148    2.6305 H         1 <0>         0.1313
     28 H9         -1.7972    1.5546    4.9847 H         1 <0>         0.1332
     29 H10        -0.7257   -0.2811    6.1728 H         1 <0>         0.1321
     30 H11        -0.1835   -4.8551    2.5658 H         1 <0>         0.1563
     31 H12         0.5201   -4.6995    4.9176 H         1 <0>         0.1356
     32 H13         0.1479   -2.6169    6.1754 H         1 <0>         0.1384
@<TRIPOS>BOND
     1    1    2 1
     2    1   20 1
     3    1   21 1
     4    1   22 1
     5    2    3 1
     6    2   23 1
     7    2   24 1
     8    3   25 1
     9    3   26 1
    10    3    4 1
    11    4    8 1
    12    4    5 2
    13    5    6 1
    14    6    7 2
    15    7   19 1
    16    7    8 1
    17    8    9 1
    18    9   14 ar
    19    9   10 ar
    20   10   11 ar
    21   10   27 1
    22   11   12 ar
    23   11   28 1
    24   12   13 ar
    25   12   29 1
    26   13   18 ar
    27   13   14 ar
    28   14   15 ar
    29   15   16 ar
    30   16   17 ar
    31   16   30 1
    32   17   18 ar
    33   17   31 1
    34   18   32 1
@<TRIPOS>MOLECULE
ZINC08607227
   25    26     0     0     0
SMALL
USER_CHARGES

@<TRIPOS>ATOM
      1 C1          0.0180   -1.1779   -0.0044 C.1       1 <0>        -0.1843
      2 C2          0.0021   -0.0041    0.0020 C.1       1 <0>        -0.1687
      3 C3         -0.0179    1.4678    0.0101 C.3       1 <0>         0.0005
      4 S1          1.6839    2.0957   -0.0028 S.3       1 <0>        -0.0118
      5 C4          1.4922    3.8472    0.0085 C.ar      1 <0>         0.2749
      6 N1          2.5699    4.6233    0.0023 N.ar      1 <0>        -0.5650
      7 C5          2.4244    5.9424    0.0104 C.ar      1 <0>         0.4326
      8 C6          1.1232    6.4756    0.0252 C.ar      1 <0>        -0.0449
      9 N2          0.0869    5.6451    0.0307 N.ar      1 <0>        -0.1771
     10 N3          0.2722    4.3715    0.0174 N.ar      1 <0>        -0.3960
     11 C7          0.9115    7.9427    0.0351 C.ar      1 <0>         0.0068
     12 C8          1.7987    8.7732    0.7183 C.ar      1 <0>        -0.0766
     13 C9          1.5968   10.1383    0.7236 C.ar      1 <0>        -0.1313
     14 C10         0.5163   10.6830    0.0531 C.ar      1 <0>        -0.1298
     15 C11        -0.3674    9.8639   -0.6265 C.ar      1 <0>        -0.1336
     16 C12        -0.1724    8.4979   -0.6436 C.ar      1 <0>        -0.1003
     17 O1          3.5061    6.7577    0.0049 O.3       1 <0>        -0.6506
     18 H1          0.0322   -2.2278   -0.0102 H         1 <0>         0.2225
     19 H2         -0.5451    1.8289   -0.8729 H         1 <0>         0.1148
     20 H3         -0.5281    1.8193    0.9069 H         1 <0>         0.1148
     21 H4          2.6421    8.3489    1.2427 H         1 <0>         0.1355
     22 H5          2.2834   10.7826    1.2525 H         1 <0>         0.1170
     23 H6          0.3619   11.7519    0.0606 H         1 <0>         0.1136
     24 H7         -1.2094   10.2948   -1.1479 H         1 <0>         0.1160
     25 H8         -0.8604    7.8598   -1.1783 H         1 <0>         0.1207
@<TRIPOS>BOND
     1    1    2 3
     2    1   18 1
     3    2    3 1
     4    3    4 1
     5    3   19 1
     6    3   20 1
     7    4    5 1
     8    5    6 ar
     9    5   10 ar
    10    6    7 ar
    11    7   17 1
    12    7    8 ar
    13    8    9 ar
    14    8   11 1
    15    9   10 ar
    16   11   16 ar
    17   11   12 ar
    18   12   13 ar
    19   12   21 1
    20   13   14 ar
    21   13   22 1
    22   14   15 ar
    23   14   23 1
    24   15   16 ar
    25   15   24 1
    26   16   25 1
@<TRIPOS>MOLECULE
ZINC48529237
   26    27     0     0     0
SMALL
USER_CHARGES

@<TRIPOS>ATOM
      1 C1         -0.4800    0.2249    2.3249 C.3       1 <0>        -0.0662
      2 C2         -0.1932   -0.5469    1.0628 C.2       1 <0>         0.0371
      3 C3         -1.1122   -0.8975    0.1118 C.2       1 <0>        -0.1621
      4 C4         -0.3564   -1.6319   -0.9152 C.2       1 <0>        -0.1779
      5 C5          0.9162   -1.6520   -0.4927 C.2       1 <0>        -0.0626
      6 O1          1.0035   -1.0012    0.6781 O.3       1 <0>        -0.1845
      7 C6         -2.5504   -0.6032    0.1154 C.2       1 <0>         0.4279
      8 O2         -3.4444   -1.6080    0.2239 O.3       1 <0>        -0.6304
      9 C7         -2.9921    0.7133    0.0069 C.2       1 <0>        -0.4192
     10 C8         -4.3826    1.0173    0.1644 C.1       1 <0>         0.3140
     11 N1         -5.4857    1.2584    0.2893 N.1       1 <0>        -0.5133
     12 C9         -2.0335    1.7879   -0.2686 C.2       1 <0>         0.4891
     13 O3         -0.8406    1.5420   -0.3205 O.2       1 <0>        -0.4960
     14 C10        -2.5099    3.1592   -0.4818 C.2       1 <0>        -0.2280
     15 C11        -1.7795    4.3053   -0.7576 C.2       1 <0>        -0.1123
     16 C12        -2.5125    5.4584   -0.9081 C.2       1 <0>        -0.1824
     17 C13        -3.8613    5.4031   -0.7812 C.2       1 <0>        -0.2742
     18 S1         -4.1791    3.7847   -0.4615 S.3       1 <0>         0.2297
     19 H1          0.4254    0.2830    2.9290 H         1 <0>         0.0667
     20 H2         -0.8107    1.2313    2.0681 H         1 <0>         0.0870
     21 H3         -1.2623   -0.2813    2.8905 H         1 <0>         0.0797
     22 H4         -0.7469   -2.0663   -1.8236 H         1 <0>         0.1430
     23 H5          1.7412   -2.1147   -1.0141 H         1 <0>         0.1944
     24 H6         -0.7034    4.2927   -0.8480 H         1 <0>         0.1413
     25 H7         -2.0208    6.3954   -1.1242 H         1 <0>         0.1235
     26 H8         -4.5698    6.2134   -0.8700 H         1 <0>         0.1757
@<TRIPOS>BOND
     1    1    2 1
     2    1   19 1
     3    1   20 1
     4    1   21 1
     5    2    6 1
     6    2    3 2
     7    3    4 1
     8    3    7 1
     9    4    5 2
    10    4   22 1
    11    5    6 1
    12    5   23 1
    13    7    8 1
    14    7    9 2
    15    9   10 1
    16    9   12 1
    17   10   11 3
    18   12   13 2
    19   12   14 1
    20   14   18 1
    21   14   15 2
    22   15   16 1
    23   15   24 1
    24   16   17 2
    25   16   25 1
    26   17   18 1
    27   17   26 1
@<TRIPOS>MOLECULE
ZINC54967929
   31    32     0     0     0
SMALL
USER_CHARGES

@<TRIPOS>ATOM
      1 C1         -1.8216    0.0142   -1.2662 C.3       1 <0>        -0.0685
      2 C2         -0.6711   -0.6575   -0.5617 C.2       1 <0>         0.0760
      3 C3          0.6473   -0.4679   -0.9639 C.2       1 <0>        -0.1971
      4 S1          1.5030   -1.4928    0.2221 S.3       1 <0>         0.0827
      5 C4          0.1577   -2.0368    1.0744 C.2       1 <0>         0.2598
      6 N1         -0.8565   -1.4461    0.4642 N.2       1 <0>        -0.5268
      7 N2          0.1216   -2.8901    2.1544 N.pl3     1 <0>        -0.5968
      8 C5          0.2372   -2.3698    3.5236 C.3       1 <0>         0.1430
      9 C6         -0.9507   -2.8786    4.3463 C.3       1 <0>        -0.1361
     10 C7         -1.0114   -4.4052    4.2570 C.3       1 <0>        -0.1149
     11 C8         -1.2179   -4.8249    2.7998 C.3       1 <0>        -0.1317
     12 C9         -0.0392   -4.3375    1.9599 C.3       1 <0>         0.1709
     13 H1          0.8684   -4.8517    2.2762 H         1 <0>         0.0659
     14 C10        -0.3093   -4.6296    0.4825 C.3       1 <0>        -0.1627
     15 C11         1.1653    0.3171   -2.0182 C.2       1 <0>         0.5530
     16 O1          0.4058    0.9592   -2.7344 O.co2     1 <0>        -0.6657
     17 O2          2.3741    0.3559   -2.2166 O.co2     1 <0>        -0.6818
     18 H2         -2.0172    0.9809   -0.8022 H         1 <0>         0.0624
     19 H3         -1.5694    0.1597   -2.3166 H         1 <0>         0.0969
     20 H4         -2.7103   -0.6122   -1.1893 H         1 <0>         0.0530
     21 H5          1.1678   -2.7200    3.9702 H         1 <0>         0.0596
     22 H6          0.2271   -1.2801    3.5025 H         1 <0>         0.0717
     23 H7         -0.8270   -2.5797    5.3872 H         1 <0>         0.0687
     24 H8         -1.8743   -2.4542    3.9527 H         1 <0>         0.0672
     25 H9         -0.0777   -4.8280    4.6278 H         1 <0>         0.0614
     26 H10        -1.8411   -4.7716    4.8615 H         1 <0>         0.0603
     27 H11        -1.2844   -5.9112    2.7400 H         1 <0>         0.0685
     28 H12        -2.1390   -4.3821    2.4208 H         1 <0>         0.0679
     29 H13         0.5446   -4.3075   -0.1135 H         1 <0>         0.0602
     30 H14        -0.4646   -5.6998    0.3462 H         1 <0>         0.0663
     31 H15        -1.2003   -4.0895    0.1624 H         1 <0>         0.0668
@<TRIPOS>BOND
     1    1    2 1
     2    1   18 1
     3    1   19 1
     4    1   20 1
     5    2    6 1
     6    2    3 2
     7    3    4 1
     8    3   15 1
     9    4    5 1
    10    5    6 2
    11    5    7 1
    12    7   12 1
    13    7    8 1
    14    8    9 1
    15    8   21 1
    16    8   22 1
    17    9   10 1
    18    9   23 1
    19    9   24 1
    20   10   11 1
    21   10   25 1
    22   10   26 1
    23   11   12 1
    24   11   27 1
    25   11   28 1
    26   12   13 1
    27   12   14 1
    28   14   29 1
    29   14   30 1
    30   14   31 1
    31   15   16 2
    32   15   17 1
@<TRIPOS>MOLECULE
ZINC62766546
   32    33     0     0     0
SMALL
USER_CHARGES

@<TRIPOS>ATOM
      1 C1         -0.5518    1.5196    0.0453 C.3       1 <0>        -0.1023
      2 C2         -0.5243    0.0129    0.0295 C.ar      1 <0>         0.1849
      3 C3         -0.6327   -0.6781   -1.1673 C.ar      1 <0>        -0.2618
      4 C4         -0.6031   -2.0637   -1.1377 C.ar      1 <0>         0.1872
      5 N1         -0.4730   -2.6818    0.0243 N.ar      1 <0>        -0.5127
      6 C5         -0.3717   -1.9912    1.1513 C.ar      1 <0>         0.2894
      7 N2         -0.3911   -0.6658    1.1568 N.ar      1 <0>        -0.5343
      8 S1         -0.1999   -2.8554    2.6772 S.3       1 <0>         0.0814
      9 C6         -0.0989   -1.5371    3.9192 C.3       1 <0>        -0.0585
     10 H1         -0.9572   -0.8715    3.8274 H         1 <0>         0.0880
     11 C7          1.2096   -0.7402    3.7387 C.3       1 <0>        -0.1041
     12 C8          1.6554   -0.4094    5.1847 C.3       1 <0>        -0.1203
     13 C9          1.2842   -1.6979    5.9600 C.3       1 <0>        -0.1055
     14 C10        -0.0528   -2.1460    5.3316 C.3       1 <0>        -0.1498
     15 H2         -0.8881   -1.7753    5.9255 H         1 <0>         0.0743
     16 C11        -0.1057   -3.6498    5.2474 C.2       1 <0>         0.4909
     17 O1          0.9051   -4.2820    4.9920 O.co2     1 <0>        -0.6714
     18 O2         -1.1592   -4.2341    5.4348 O.co2     1 <0>        -0.6874
     19 C12        -0.7182   -2.8563   -2.4143 C.3       1 <0>        -0.1028
     20 H3          0.4633    1.9026   -0.0598 H         1 <0>         0.0816
     21 H4         -1.1637    1.8805   -0.7814 H         1 <0>         0.0765
     22 H5         -0.9748    1.8654    0.9884 H         1 <0>         0.0794
     23 H6         -0.7384   -0.1485   -2.1025 H         1 <0>         0.1382
     24 H7          1.9615   -1.3498    3.2377 H         1 <0>         0.0691
     25 H8          1.0241    0.1758    3.1777 H         1 <0>         0.0693
     26 H9          2.7296   -0.2296    5.2262 H         1 <0>         0.0616
     27 H10         1.1040    0.4471    5.5725 H         1 <0>         0.0597
     28 H11         2.0482   -2.4622    5.8177 H         1 <0>         0.0835
     29 H12         1.1531   -1.4808    7.0201 H         1 <0>         0.0546
     30 H13         0.2762   -3.0278   -2.8264 H         1 <0>         0.0825
     31 H14        -1.1950   -3.8140   -2.2056 H         1 <0>         0.0817
     32 H15        -1.3190   -2.3005   -3.1341 H         1 <0>         0.0769
@<TRIPOS>BOND
     1    1    2 1
     2    1   20 1
     3    1   21 1
     4    1   22 1
     5    2    7 ar
     6    2    3 ar
     7    3    4 ar
     8    3   23 1
     9    4    5 ar
    10    4   19 1
    11    5    6 ar
    12    6    7 ar
    13    6    8 1
    14    8    9 1
    15    9   10 1
    16    9   14 1
    17    9   11 1
    18   11   12 1
    19   11   24 1
    20   11   25 1
    21   12   13 1
    22   12   26 1
    23   12   27 1
    24   13   14 1
    25   13   28 1
    26   13   29 1
    27   14   15 1
    28   14   16 1
    29   16   17 2
    30   16   18 1
    31   19   30 1
    32   19   31 1
    33   19   32 1
@<TRIPOS>MOLECULE
ZINC13280168
   52    56     0     0     0
SMALL
USER_CHARGES
3-(4-fluorophenyl)-2-(2-indan-5-yl-2-oxo-ethyl)sulfanyl-4-oxo-quinazoline-7-carboxylic acid
@<TRIPOS>ATOM
      1 C1         -8.2319    3.7361   -1.0276 C.ar      1 <0>        -0.0594
      2 C2         -9.4736    4.3406   -1.0137 C.ar      1 <0>        -0.1441
      3 C3         -9.8656    5.0942    0.0800 C.ar      1 <0>         0.1170
      4 C4         -9.0161    5.2385    1.1641 C.ar      1 <0>        -0.1441
      5 C5         -7.7759    4.6309    1.1564 C.ar      1 <0>        -0.0592
      6 C6         -7.3810    3.8749    0.0608 C.ar      1 <0>         0.0918
      7 N1         -6.1230    3.2575    0.0510 N.am      1 <0>        -0.4906
      8 C7         -5.0533    3.9213   -0.4446 C.2       1 <0>         0.5592
      9 O1         -5.1608    5.0510   -0.8849 O.2       1 <0>        -0.5021
     10 C8         -3.7557    3.2283   -0.4322 C.ar      1 <0>        -0.1930
     11 C9         -2.5982    3.8327   -0.9224 C.ar      1 <0>        -0.0616
     12 C10        -1.4115    3.1587   -0.8871 C.ar      1 <0>        -0.0849
     13 C11        -1.3457    1.8567   -0.3736 C.ar      1 <0>        -0.0651
     14 C12        -2.4862    1.2351    0.1191 C.ar      1 <0>        -0.0710
     15 C13        -3.7057    1.9176    0.0942 C.ar      1 <0>         0.1364
     16 N2         -4.8420    1.3510    0.5640 N.2       1 <0>        -0.5068
     17 C14        -5.9862    1.9887    0.5422 C.2       1 <0>         0.3427
     18 S1         -7.4147    1.1736    1.1742 S.3       1 <0>         0.0453
     19 C15        -6.6825   -0.4064    1.6678 C.3       1 <0>        -0.1576
     20 C16        -7.7504   -1.2936    2.2540 C.2       1 <0>         0.4184
     21 O2         -8.8936   -0.8969    2.3305 O.2       1 <0>        -0.4380
     22 C17        -7.4056   -2.6416    2.7335 C.ar      1 <0>        -0.1660
     23 C18        -6.0884   -3.1039    2.6474 C.ar      1 <0>        -0.0655
     24 C19        -5.7762   -4.3670    3.0991 C.ar      1 <0>        -0.1178
     25 C20        -6.7593   -5.1835    3.6386 C.ar      1 <0>        -0.0611
     26 C21        -8.0652   -4.7329    3.7271 C.ar      1 <0>        -0.1145
     27 C22        -8.3909   -3.4657    3.2830 C.ar      1 <0>        -0.0439
     28 C23        -8.9353   -5.8056    4.3472 C.3       1 <0>        -0.0818
     29 C24        -7.9512   -6.7814    5.0262 C.3       1 <0>        -0.1210
     30 C25        -6.6659   -6.5893    4.1939 C.3       1 <0>        -0.0891
     31 C26        -0.0511    1.1411   -0.3502 C.2       1 <0>         0.4879
     32 O3          0.0119    0.0144    0.0985 O.co2     1 <0>        -0.6207
     33 F1        -11.0786    5.6890    0.0896 F         1 <0>        -0.1343
     34 H1         -7.9246    3.1525   -1.8828 H         1 <0>         0.1391
     35 H2        -10.1375    4.2292   -1.8582 H         1 <0>         0.1458
     36 H3         -9.3234    5.8269    2.0160 H         1 <0>         0.1459
     37 H4         -7.1135    4.7440    2.0019 H         1 <0>         0.1392
     38 H5         -2.6395    4.8345   -1.3237 H         1 <0>         0.1349
     39 H6         -0.5163    3.6314   -1.2631 H         1 <0>         0.1445
     40 H7         -2.4310    0.2332    0.5184 H         1 <0>         0.1458
     41 H8         -6.2810   -0.8521    0.8677 H         1 <0>         0.1215
     42 H9         -5.9069   -0.2304    2.4131 H         1 <0>         0.1381
     43 H10        -5.3187   -2.4725    2.2286 H         1 <0>         0.1409
     44 H11        -4.7592   -4.7243    3.0324 H         1 <0>         0.1318
     45 H12        -9.4092   -3.1136    3.3567 H         1 <0>         0.1324
     46 H13        -9.6052   -5.3680    5.0874 H         1 <0>         0.0768
     47 H14        -9.5075   -6.3211    3.5760 H         1 <0>         0.0817
     48 H15        -7.7844   -6.5020    6.0665 H         1 <0>         0.0739
     49 H16        -8.3107   -7.8078    4.9525 H         1 <0>         0.0785
     50 H17        -6.6295   -7.3151    3.3815 H         1 <0>         0.0858
     51 H18        -5.7857   -6.6872    4.8293 H         1 <0>         0.0806
     52 O4          1.0566    1.7371   -0.8317 O.co2     1 <0>        -0.7426
@<TRIPOS>BOND
     1    1    6 ar
     2    1    2 ar
     3    1   34 1
     4    2    3 ar
     5    2   35 1
     6    3    4 ar
     7    3   33 1
     8    4    5 ar
     9    4   36 1
    10    5    6 ar
    11    5   37 1
    12    6    7 1
    13    7   17 1
    14    7    8 am
    15    8    9 2
    16    8   10 1
    17   10   15 ar
    18   10   11 ar
    19   11   12 ar
    20   11   38 1
    21   12   13 ar
    22   12   39 1
    23   13   14 ar
    24   13   31 1
    25   14   15 ar
    26   14   40 1
    27   15   16 1
    28   16   17 2
    29   17   18 1
    30   18   19 1
    31   19   20 1
    32   19   41 1
    33   19   42 1
    34   20   21 2
    35   20   22 1
    36   22   27 ar
    37   22   23 ar
    38   23   24 ar
    39   23   43 1
    40   24   25 ar
    41   24   44 1
    42   25   30 1
    43   25   26 ar
    44   26   27 ar
    45   26   28 1
    46   27   45 1
    47   28   29 1
    48   28   46 1
    49   28   47 1
    50   29   30 1
    51   29   48 1
    52   29   49 1
    53   30   50 1
    54   30   51 1
    55   31   32 2
    56   31   52 1
@<TRIPOS>MOLECULE
ZINC33299040
   40    42     0     0     0
SMALL
USER_CHARGES
3-chloro-4-fluoro-N-(2-propylsulfonyl-1,3-benzothiazol-6-yl)benzenesulfonamide
@<TRIPOS>ATOM
      1 C1          1.2243    8.5340  -10.2636 C.3       1 <0>        -0.1464
      2 C2          0.2428    7.6837   -9.4546 C.3       1 <0>        -0.1199
      3 C3          0.9900    6.9877   -8.3152 C.3       1 <0>        -0.6037
      4 S1         -0.1737    5.9796   -7.3560 S.o2      1 <0>         2.5344
      5 O1         -0.6370    4.8883   -8.1394 O.2       1 <0>        -0.9238
      6 O2         -1.0910    6.8159   -6.6643 O.2       1 <0>        -0.9178
      7 C4          0.8040    5.2409   -6.0898 C.2       1 <0>        -0.4849
      8 N1          1.0712    5.6914   -4.8945 N.2       1 <0>        -0.3423
      9 C5          1.8429    5.0166   -4.0148 C.ar      1 <0>        -0.0447
     10 C6          2.2048    5.3938   -2.7002 C.ar      1 <0>         0.0034
     11 C7          2.9967    4.5957   -1.9373 C.ar      1 <0>        -0.2157
     12 C8          3.4825    3.3788   -2.4135 C.ar      1 <0>         0.3035
     13 C9          3.1537    2.9761   -3.7007 C.ar      1 <0>        -0.1449
     14 C10         2.3495    3.7784   -4.4725 C.ar      1 <0>        -0.0559
     15 S2          1.6819    3.6842   -6.1162 S.3       1 <0>         0.0310
     16 N2          4.2954    2.5765   -1.6067 N.2       1 <0>        -1.0524
     17 S3          3.8905    2.3164   -0.0222 S.o2      1 <0>         2.6056
     18 O3          3.6061    3.5907    0.5387 O.2       1 <0>        -1.0236
     19 O4          4.8830    1.4524    0.5141 O.2       1 <0>        -0.9782
     20 C11         2.3778    1.4130   -0.0126 C.ar      1 <0>        -0.6604
     21 C12         1.1707    2.0872    0.0021 C.ar      1 <0>         0.0050
     22 C13        -0.0167    1.3802    0.0096 C.ar      1 <0>        -0.1645
     23 C14         0.0021   -0.0041    0.0020 C.ar      1 <0>         0.1439
     24 C15         1.2119   -0.6791   -0.0132 C.ar      1 <0>        -0.0973
     25 C16         2.3989    0.0310   -0.0207 C.ar      1 <0>         0.0143
     26 Cl1         1.2380   -2.4149   -0.0222 Cl        1 <0>        -0.0523
     27 F1         -1.1582   -0.6960    0.0089 F         1 <0>        -0.1254
     28 H1          0.6871    9.0344  -11.0828 H         1 <0>         0.0632
     29 H2          2.0108    7.8884  -10.6814 H         1 <0>         0.0606
     30 H3          1.6806    9.2905   -9.6083 H         1 <0>         0.0606
     31 H4         -0.5437    8.3293   -9.0368 H         1 <0>         0.0825
     32 H5         -0.2135    6.9272  -10.1099 H         1 <0>         0.0823
     33 H6          1.7765    6.3421   -8.7330 H         1 <0>         0.1403
     34 H7          1.4463    7.7442   -7.6599 H         1 <0>         0.1420
     35 H8          1.8468    6.3297   -2.2974 H         1 <0>         0.1281
     36 H9          3.2558    4.9115   -0.9375 H         1 <0>         0.1623
     37 H10         3.5238    2.0392   -4.0901 H         1 <0>         0.1339
     38 H11         1.1559    3.1670    0.0080 H         1 <0>         0.1516
     39 H12        -0.9592    1.9076    0.0169 H         1 <0>         0.1488
     40 H13         3.3423   -0.4945   -0.0325 H         1 <0>         0.1566
@<TRIPOS>BOND
     1    1    2 1
     2    1   28 1
     3    1   29 1
     4    1   30 1
     5    2    3 1
     6    2   31 1
     7    2   32 1
     8    3    4 1
     9    3   33 1
    10    3   34 1
    11    4    5 2
    12    4    6 2
    13    4    7 1
    14    7   15 1
    15    7    8 2
    16    8    9 1
    17    9   14 ar
    18    9   10 ar
    19   10   11 ar
    20   10   35 1
    21   11   12 ar
    22   11   36 1
    23   12   13 ar
    24   12   16 1
    25   13   14 ar
    26   13   37 1
    27   14   15 1
    28   16   17 1
    29   17   18 2
    30   17   19 2
    31   17   20 1
    32   20   25 ar
    33   20   21 ar
    34   21   22 ar
    35   21   38 1
    36   22   23 ar
    37   22   39 1
    38   23   24 ar
    39   23   27 1
    40   24   25 ar
    41   24   26 1
    42   25   40 1
@<TRIPOS>MOLECULE
ZINC21097797
   62    65     0     0     0
SMALL
USER_CHARGES

@<TRIPOS>ATOM
      1 C1          0.0020    1.5229    0.0637 C.3       1 <0>        -0.1181
      2 C2          0.0204    0.0162    0.0400 C.2       1 <0>         0.1361
      3 C3          0.0305   -0.6313   -1.1448 C.2       1 <0>        -0.2579
      4 C4          0.0481   -2.0401   -1.1730 C.2       1 <0>         0.3244
      5 C5          0.0547   -2.7340    0.0228 C.2       1 <0>        -0.4325
      6 C6          0.0436   -2.0184    1.2257 C.2       1 <0>         0.5504
      7 O1          0.0496   -2.6164    2.2905 O.2       1 <0>        -0.5631
      8 N1          0.0321   -0.6725    1.2114 N.am      1 <0>        -0.5190
      9 C7          0.0262    0.0616    2.4792 C.3       1 <0>         0.1016
     10 C8         -1.4182    0.2991    2.9243 C.3       1 <0>         0.0472
     11 O2         -2.0406   -0.9549    3.2108 O.3       1 <0>        -0.3538
     12 C9         -3.4000   -0.8450    3.6376 C.3       1 <0>         0.0335
     13 C10         0.0730   -4.2409    0.0310 C.3       1 <0>         0.2358
     14 H1          0.1686   -4.6086   -0.9906 H         1 <0>         0.0509
     15 C11        -1.2095   -4.7555    0.6321 C.ar      1 <0>        -0.0440
     16 C12        -1.3684   -4.7790    2.0052 C.ar      1 <0>        -0.0553
     17 C13        -2.5444   -5.2509    2.5572 C.ar      1 <0>        -0.1297
     18 C14        -3.5627   -5.6998    1.7352 C.ar      1 <0>        -0.0463
     19 C15        -3.4031   -5.6761    0.3611 C.ar      1 <0>        -0.1278
     20 C16        -2.2289   -5.1987   -0.1898 C.ar      1 <0>        -0.1082
     21 Cl1        -5.0398   -6.2932    2.4278 Cl        1 <0>        -0.1025
     22 N2          1.2120   -4.7124    0.8298 N.3       1 <0>        -0.5081
     23 C17         2.4734   -4.1466    0.3332 C.3       1 <0>         0.0592
     24 C18         3.6080   -4.5138    1.2956 C.3       1 <0>         0.1276
     25 N3          3.6107   -5.9730    1.4795 N.pl3     1 <0>        -0.6225
     26 C19         2.3468   -6.6308    1.8443 C.3       1 <0>         0.1301
     27 C20         1.2619   -6.1802    0.8603 C.3       1 <0>         0.0375
     28 C21         4.7824   -6.7145    1.3117 C.ar      1 <0>         0.2312
     29 C22         5.9396   -6.0945    0.8577 C.ar      1 <0>        -0.2061
     30 C23         7.0966   -6.8306    0.6933 C.ar      1 <0>        -0.0706
     31 C24         7.1038   -8.1834    0.9798 C.ar      1 <0>        -0.1946
     32 C25         5.9536   -8.8038    1.4320 C.ar      1 <0>        -0.0713
     33 C26         4.7947   -8.0725    1.6040 C.ar      1 <0>        -0.2073
     34 O3          0.0580   -2.7042   -2.3535 O.3       1 <0>        -0.7038
     35 H2          1.0252    1.8987    0.0665 H         1 <0>         0.0738
     36 H3         -0.5189    1.8938   -0.8190 H         1 <0>         0.0774
     37 H4         -0.5135    1.8660    0.9607 H         1 <0>         0.0646
     38 H5          0.0248   -0.0711   -2.0681 H         1 <0>         0.1166
     39 H6          0.5494   -0.5200    3.2382 H         1 <0>         0.0984
     40 H7          0.5277    1.0202    2.3462 H         1 <0>         0.0862
     41 H8         -1.4249    0.9210    3.8195 H         1 <0>         0.0498
     42 H9         -1.9657    0.8029    2.1278 H         1 <0>         0.0441
     43 H10        -3.8003   -1.8394    3.8350 H         1 <0>         0.0828
     44 H11        -3.4478   -0.2469    4.5476 H         1 <0>         0.0324
     45 H12        -3.9886   -0.3649    2.8559 H         1 <0>         0.0328
     46 H13        -0.5733   -4.4288    2.6467 H         1 <0>         0.1672
     47 H14        -2.6682   -5.2694    3.6299 H         1 <0>         0.1179
     48 H15        -4.1976   -6.0268   -0.2810 H         1 <0>         0.1190
     49 H16        -2.1060   -5.1757   -1.2626 H         1 <0>         0.1227
     50 H17         2.6896   -4.5517   -0.6554 H         1 <0>         0.0257
     51 H18         2.3860   -3.0619    0.2710 H         1 <0>         0.0877
     52 H19         4.5621   -4.1959    0.8751 H         1 <0>         0.0760
     53 H20         3.4466   -4.0240    2.2558 H         1 <0>         0.0682
     54 H21         2.4671   -7.7126    1.7866 H         1 <0>         0.0762
     55 H22         2.0641   -6.3445    2.8573 H         1 <0>         0.0683
     56 H23         0.2958   -6.5704    1.1804 H         1 <0>         0.0801
     57 H24         1.4949   -6.5570   -0.1356 H         1 <0>         0.0263
     58 H25         5.9345   -5.0382    0.6331 H         1 <0>         0.1210
     59 H26         7.9966   -6.3492    0.3404 H         1 <0>         0.1154
     60 H27         8.0097   -8.7569    0.8497 H         1 <0>         0.1117
     61 H28         5.9626   -9.8605    1.6548 H         1 <0>         0.1150
     62 H29         3.8980   -8.5567    1.9614 H         1 <0>         0.1199
@<TRIPOS>BOND
     1    1    2 1
     2    1   35 1
     3    1   36 1
     4    1   37 1
     5    2    8 1
     6    2    3 2
     7    3    4 1
     8    3   38 1
     9    4    5 2
    10    4   34 1
    11    5    6 1
    12    5   13 1
    13    6    7 2
    14    6    8 am
    15    8    9 1
    16    9   10 1
    17    9   39 1
    18    9   40 1
    19   10   11 1
    20   10   41 1
    21   10   42 1
    22   11   12 1
    23   12   43 1
    24   12   44 1
    25   12   45 1
    26   13   14 1
    27   13   15 1
    28   13   22 1
    29   15   20 ar
    30   15   16 ar
    31   16   17 ar
    32   16   46 1
    33   17   18 ar
    34   17   47 1
    35   18   19 ar
    36   18   21 1
    37   19   20 ar
    38   19   48 1
    39   20   49 1
    40   22   27 1
    41   22   23 1
    42   23   24 1
    43   23   50 1
    44   23   51 1
    45   24   25 1
    46   24   52 1
    47   24   53 1
    48   25   26 1
    49   25   28 1
    50   26   27 1
    51   26   54 1
    52   26   55 1
    53   27   56 1
    54   27   57 1
    55   28   33 ar
    56   28   29 ar
    57   29   30 ar
    58   29   58 1
    59   30   31 ar
    60   30   59 1
    61   31   32 ar
    62   31   60 1
    63   32   33 ar
    64   32   61 1
    65   33   62 1
@<TRIPOS>MOLECULE
ZINC44900947
   53    55     0     0     0
SMALL
USER_CHARGES

@<TRIPOS>ATOM
      1 C1         -0.4223    2.4270    1.2518 C.3       1 <0>        -0.1043
      2 C2         -0.2658    0.9372    1.0874 C.ar      1 <0>        -0.0555
      3 C3         -0.1246    0.3928   -0.1762 C.ar      1 <0>        -0.2262
      4 C4          0.0188   -0.9736   -0.3315 C.ar      1 <0>        -0.0657
      5 C5          0.0220   -1.7996    0.7756 C.ar      1 <0>        -0.2689
      6 C6         -0.1191   -1.2561    2.0459 C.ar      1 <0>         0.2828
      7 C7         -0.2578    0.1178    2.1988 C.ar      1 <0>        -0.1801
      8 N1         -0.1162   -2.0884    3.1676 N.2       1 <0>        -1.0785
      9 S1          0.0554   -3.7252    2.9836 S.o2      1 <0>         2.5957
     10 O1         -1.1074   -4.1819    2.3065 O.2       1 <0>        -1.0265
     11 O2          1.3658   -3.9419    2.4784 O.2       1 <0>        -1.0129
     12 C8          0.0126   -4.4378    4.5945 C.ar      1 <0>        -0.6194
     13 C9         -1.0181   -5.2843    4.9454 C.ar      1 <0>         0.0351
     14 C10        -1.0506   -5.8481    6.2220 C.ar      1 <0>        -0.1578
     15 C11        -0.0381   -5.5508    7.1365 C.ar      1 <0>        -0.0487
     16 C12         0.9871   -4.7031    6.7742 C.ar      1 <0>        -0.1454
     17 C13         1.0170   -4.1511    5.5039 C.ar      1 <0>         0.0803
     18 Cl1         2.3152   -3.0907    5.0524 Cl        1 <0>        -0.0225
     19 C14        -2.1525   -6.7556    6.6044 C.2       1 <0>         0.5661
     20 O3         -3.2881   -6.5199    6.2402 O.2       1 <0>        -0.5241
     21 N2         -1.8985   -7.8446    7.3568 N.am      1 <0>        -0.6056
     22 C15        -0.5514   -8.0709    7.8865 C.3       1 <0>         0.0633
     23 C16        -2.9693   -8.8019    7.6449 C.3       1 <0>         0.1663
     24 C17        -2.9987   -9.8605    6.5727 C.ar      1 <0>        -0.1408
     25 C18        -3.9216   -9.7809    5.5477 C.ar      1 <0>        -0.0578
     26 C19        -3.9494  -10.7519    4.5641 C.ar      1 <0>        -0.1567
     27 C20        -3.0537  -11.8048    4.6031 C.ar      1 <0>        -0.0769
     28 C21        -2.1288  -11.8886    5.6254 C.ar      1 <0>        -0.2122
     29 C22        -2.0954  -10.9125    6.6110 C.ar      1 <0>         0.1382
     30 O4         -1.1826  -10.9897    7.6148 O.3       1 <0>        -0.3149
     31 C23        -0.2838  -12.1004    7.5904 C.3       1 <0>         0.0257
     32 H1          0.5606    2.8862    1.3577 H         1 <0>         0.0593
     33 H2         -0.9231    2.8387    0.3755 H         1 <0>         0.0550
     34 H3         -1.0177    2.6339    2.1411 H         1 <0>         0.0580
     35 H4         -0.1268    1.0364   -1.0435 H         1 <0>         0.0990
     36 H5          0.1281   -1.3956   -1.3196 H         1 <0>         0.0999
     37 H6          0.1337   -2.8668    0.6535 H         1 <0>         0.0941
     38 H7         -0.3636    0.5441    3.1855 H         1 <0>         0.1104
     39 H8         -1.7986   -5.5104    4.2341 H         1 <0>         0.1535
     40 H9         -0.0582   -5.9838    8.1257 H         1 <0>         0.1459
     41 H10         1.7706   -4.4722    7.4808 H         1 <0>         0.1438
     42 H11        -0.4321   -7.5238    8.8217 H         1 <0>         0.0582
     43 H12        -0.4064   -9.1359    8.0675 H         1 <0>         0.0904
     44 H13         0.1864   -7.7213    7.1643 H         1 <0>         0.0741
     45 H14        -2.7877   -9.2698    8.6125 H         1 <0>         0.0893
     46 H15        -3.9263   -8.2807    7.6673 H         1 <0>         0.0946
     47 H16        -4.6222   -8.9596    5.5150 H         1 <0>         0.1351
     48 H17        -4.6721  -10.6883    3.7640 H         1 <0>         0.1257
     49 H18        -3.0777  -12.5623    3.8337 H         1 <0>         0.1241
     50 H19        -1.4295  -12.7111    5.6555 H         1 <0>         0.1269
     51 H20        -0.8524  -13.0291    7.6394 H         1 <0>         0.0547
     52 H21         0.2965  -12.0779    6.6680 H         1 <0>         0.0557
     53 H22         0.3900  -12.0414    8.4451 H         1 <0>         0.1001
@<TRIPOS>BOND
     1    1    2 1
     2    1   32 1
     3    1   33 1
     4    1   34 1
     5    2    7 ar
     6    2    3 ar
     7    3    4 ar
     8    3   35 1
     9    4    5 ar
    10    4   36 1
    11    5    6 ar
    12    5   37 1
    13    6    7 ar
    14    6    8 1
    15    7   38 1
    16    8    9 1
    17    9   10 2
    18    9   11 2
    19    9   12 1
    20   12   17 ar
    21   12   13 ar
    22   13   14 ar
    23   13   39 1
    24   14   15 ar
    25   14   19 1
    26   15   16 ar
    27   15   40 1
    28   16   17 ar
    29   16   41 1
    30   17   18 1
    31   19   20 2
    32   19   21 am
    33   21   22 1
    34   21   23 1
    35   22   42 1
    36   22   43 1
    37   22   44 1
    38   23   24 1
    39   23   45 1
    40   23   46 1
    41   24   29 ar
    42   24   25 ar
    43   25   26 ar
    44   25   47 1
    45   26   27 ar
    46   26   48 1
    47   27   28 ar
    48   27   49 1
    49   28   29 ar
    50   28   50 1
    51   29   30 1
    52   30   31 1
    53   31   51 1
    54   31   52 1
    55   31   53 1
@<TRIPOS>MOLECULE
ZINC59862330
   49    52     0     0     0
SMALL
USER_CHARGES

@<TRIPOS>ATOM
      1 C1          1.6069    2.9350   -1.4008 C.3       1 <0>        -0.1709
      2 C2          0.5869    1.8363   -1.0956 C.3       1 <0>         0.1012
      3 N1          0.9550    0.6146   -1.8156 N.pl3     1 <0>        -0.4623
      4 C3          0.4671    0.2606   -3.0171 C.2       1 <0>         0.1777
      5 C4          1.0250   -0.9472   -3.4061 C.2       1 <0>        -0.2129
      6 C5          1.9389   -1.3454   -2.3156 C.ar      1 <0>        -0.0609
      7 C6          1.8548   -0.3265   -1.3543 C.ar      1 <0>         0.0806
      8 C7          2.6184   -0.4193   -0.1956 C.ar      1 <0>        -0.1206
      9 C8          3.4489   -1.5028   -0.0035 C.ar      1 <0>        -0.1149
     10 C9          3.5326   -2.5063   -0.9565 C.ar      1 <0>        -0.1398
     11 C10         2.7770   -2.4356   -2.1079 C.ar      1 <0>        -0.0801
     12 C11         0.7715   -1.6518   -4.5980 C.2       1 <0>         0.1150
     13 C12        -0.5365   -1.8092   -5.0492 C.2       1 <0>        -0.2727
     14 C13        -0.8283   -2.3673   -6.3755 C.2       1 <0>         0.5006
     15 O1          0.1712   -2.7464   -7.2001 O.3       1 <0>        -0.6417
     16 N2         -2.0932   -2.4906   -6.7443 N.2       1 <0>        -0.6634
     17 C14        -3.0977   -2.1259   -5.9527 C.2       1 <0>         0.6718
     18 O2         -4.2361   -2.2702   -6.3626 O.2       1 <0>        -0.5674
     19 N3         -2.9255   -1.6083   -4.7276 N.am      1 <0>        -0.5515
     20 C15        -1.6895   -1.4288   -4.2143 C.2       1 <0>         0.5711
     21 O3         -1.5329   -0.9636   -3.1004 O.2       1 <0>        -0.5175
     22 C16        -4.0467   -1.2535   -3.9653 C.ar      1 <0>         0.1887
     23 C17        -4.6293   -2.1805   -3.1116 C.ar      1 <0>        -0.0941
     24 C18        -5.7338   -1.8278   -2.3612 C.ar      1 <0>        -0.0670
     25 C19        -6.2604   -0.5528   -2.4596 C.ar      1 <0>        -0.0886
     26 C20        -5.6830    0.3731   -3.3085 C.ar      1 <0>        -0.0851
     27 C21        -4.5740    0.0282   -4.0579 C.ar      1 <0>        -0.0764
     28 Br1        -3.7800    1.2974   -5.2131 Br        1 <0>        -0.0466
     29 C22        -7.4663   -0.1720   -1.6399 C.3       1 <0>        -0.1112
     30 C23        -6.3665   -2.8338   -1.4345 C.3       1 <0>        -0.1149
     31 H1          2.5973    2.6100   -1.0822 H         1 <0>         0.0627
     32 H2          1.6170    3.1339   -2.4724 H         1 <0>         0.0635
     33 H3          1.3330    3.8440   -0.8651 H         1 <0>         0.0736
     34 H4          0.5767    1.6374   -0.0240 H         1 <0>         0.0869
     35 H5         -0.4036    2.1613   -1.4142 H         1 <0>         0.0930
     36 H6         -0.2496    0.8294   -3.5907 H         1 <0>         0.1689
     37 H7          2.5610    0.3570    0.5531 H         1 <0>         0.1143
     38 H8          4.0402   -1.5703    0.8977 H         1 <0>         0.1208
     39 H9          4.1875   -3.3495   -0.7937 H         1 <0>         0.1208
     40 H10         2.8445   -3.2173   -2.8500 H         1 <0>         0.1237
     41 H11         1.5916   -2.0704   -5.1627 H         1 <0>         0.1441
     42 H12        -4.2193   -3.1767   -3.0346 H         1 <0>         0.1286
     43 H13        -6.0967    1.3680   -3.3834 H         1 <0>         0.1327
     44 H14        -7.1411    0.2328   -0.6815 H         1 <0>         0.0700
     45 H15        -8.0459    0.5806   -2.1744 H         1 <0>         0.0660
     46 H16        -8.0840   -1.0541   -1.4710 H         1 <0>         0.0718
     47 H17        -5.9025   -2.7636   -0.4507 H         1 <0>         0.0720
     48 H18        -7.4334   -2.6281   -1.3486 H         1 <0>         0.0725
     49 H19        -6.2210   -3.8375   -1.8339 H         1 <0>         0.0680
@<TRIPOS>BOND
     1    1    2 1
     2    1   31 1
     3    1   32 1
     4    1   33 1
     5    2    3 1
     6    2   34 1
     7    2   35 1
     8    3    7 1
     9    3    4 1
    10    4    5 2
    11    4   36 1
    12    5    6 1
    13    5   12 1
    14    6   11 ar
    15    6    7 ar
    16    7    8 ar
    17    8    9 ar
    18    8   37 1
    19    9   10 ar
    20    9   38 1
    21   10   11 ar
    22   10   39 1
    23   11   40 1
    24   12   13 2
    25   12   41 1
    26   13   20 1
    27   13   14 1
    28   14   15 1
    29   14   16 2
    30   16   17 1
    31   17   18 2
    32   17   19 am
    33   19   20 am
    34   19   22 1
    35   20   21 2
    36   22   27 ar
    37   22   23 ar
    38   23   24 ar
    39   23   42 1
    40   24   25 ar
    41   24   30 1
    42   25   26 ar
    43   25   29 1
    44   26   27 ar
    45   26   43 1
    46   27   28 1
    47   29   44 1
    48   29   45 1
    49   29   46 1
    50   30   47 1
    51   30   48 1
    52   30   49 1
@<TRIPOS>MOLECULE
ZINC17220186
   46    48     0     0     0
SMALL
USER_CHARGES
(dihydroxyBLAHyl) acetate
@<TRIPOS>ATOM
      1 C1         -1.0028   -2.6200   -2.6168 C.3       1 <0>        -0.1474
      2 C2         -1.1506   -1.1283   -2.4622 C.2       1 <0>         0.4605
      3 O1         -0.6327   -0.3839   -3.2607 O.2       1 <0>        -0.5107
      4 O2         -1.8575   -0.6265   -1.4374 O.3       1 <0>        -0.3089
      5 C3         -2.0587    0.8113   -1.4167 C.3       1 <0>         0.1253
      6 C4         -0.7564    1.5971   -1.2646 C.3       1 <0>        -0.1470
      7 C5          0.0057    1.1025   -0.0362 C.3       1 <0>        -0.1129
      8 C6         -0.6914    1.6016    1.2440 C.3       1 <0>        -0.1232
      9 C7         -1.0689    3.0390    1.1433 C.3       1 <0>        -0.1286
     10 C8         -2.6040    3.1706    1.1387 C.3       1 <0>        -0.1187
     11 C9         -3.1234    2.7926   -0.2342 C.3       1 <0>        -0.1107
     12 C10        -3.1326    1.2782   -0.4211 C.3       1 <0>        -0.0885
     13 H1         -3.1574    0.7224    0.5162 H         1 <0>         0.0894
     14 C11        -4.0926    0.7807   -1.4731 C.3       1 <0>         0.0865
     15 C12        -3.0080    1.3283   -2.4586 C.3       1 <0>        -0.1143
     16 H2         -3.0110    2.4160   -2.5285 H         1 <0>         0.1248
     17 C13        -3.2758    0.6762   -3.7989 C.3       1 <0>        -0.0969
     18 C14        -4.6439    1.2075   -4.2668 C.3       1 <0>        -0.1091
     19 C15        -5.7501    0.9512   -3.2514 C.3       1 <0>        -0.1427
     20 C16        -5.3898    1.4743   -1.8458 C.3       1 <0>         0.1031
     21 H3         -6.1732    1.2161   -1.1332 H         1 <0>         0.0573
     22 O3         -5.2008    2.8903   -1.8793 O.3       1 <0>        -0.5479
     23 O4         -4.2072   -0.6434   -1.4998 O.3       1 <0>        -0.5132
     24 H4         -1.8185   -3.0044   -3.2291 H         1 <0>         0.1017
     25 H5         -0.0507   -2.8429   -3.0983 H         1 <0>         0.0983
     26 H6         -1.0323   -3.0918   -1.6346 H         1 <0>         0.0900
     27 H7         -0.9840    2.6566   -1.1476 H         1 <0>         0.0917
     28 H8         -0.1422    1.4544   -2.1538 H         1 <0>         0.0799
     29 H9          0.0257    0.0127   -0.0366 H         1 <0>         0.0609
     30 H10         1.0265    1.4837   -0.0652 H         1 <0>         0.0605
     31 H11        -1.5890    1.0082    1.4174 H         1 <0>         0.0657
     32 H12        -0.0148    1.4813    2.0901 H         1 <0>         0.0555
     33 H13        -0.6654    3.4471    0.2167 H         1 <0>         0.0692
     34 H14        -0.6589    3.5859    1.9924 H         1 <0>         0.0588
     35 H15        -2.8830    4.2000    1.3640 H         1 <0>         0.0638
     36 H16        -3.0320    2.5040    1.8874 H         1 <0>         0.0624
     37 H17        -2.4850    3.2427   -0.9944 H         1 <0>         0.0723
     38 H18        -4.1384    3.1731   -0.3488 H         1 <0>         0.1037
     39 H19        -3.3124   -0.4076   -3.6884 H         1 <0>         0.0660
     40 H20        -2.5014    0.9536   -4.5141 H         1 <0>         0.0650
     41 H21        -4.9082    0.7214   -5.2059 H         1 <0>         0.0594
     42 H22        -4.5637    2.2812   -4.4368 H         1 <0>         0.0611
     43 H23        -5.9337   -0.1217   -3.1925 H         1 <0>         0.0743
     44 H24        -6.6601    1.4466   -3.5900 H         1 <0>         0.0616
     45 H25        -5.9966    3.3879   -2.1121 H         1 <0>         0.3770
     46 H26        -4.7836   -1.0046   -0.8125 H         1 <0>         0.3749
@<TRIPOS>BOND
     1    1    2 1
     2    1   24 1
     3    1   25 1
     4    1   26 1
     5    2    3 2
     6    2    4 1
     7    4    5 1
     8    5   12 1
     9    5   15 1
    10    5    6 1
    11    6    7 1
    12    6   27 1
    13    6   28 1
    14    7    8 1
    15    7   29 1
    16    7   30 1
    17    8    9 1
    18    8   31 1
    19    8   32 1
    20    9   10 1
    21    9   33 1
    22    9   34 1
    23   10   11 1
    24   10   35 1
    25   10   36 1
    26   11   12 1
    27   11   37 1
    28   11   38 1
    29   12   13 1
    30   12   14 1
    31   14   20 1
    32   14   15 1
    33   14   23 1
    34   15   16 1
    35   15   17 1
    36   17   18 1
    37   17   39 1
    38   17   40 1
    39   18   19 1
    40   18   41 1
    41   18   42 1
    42   19   20 1
    43   19   43 1
    44   19   44 1
    45   20   21 1
    46   20   22 1
    47   22   45 1
    48   23   46 1
@<TRIPOS>MOLECULE
ZINC37053515
   41    42     0     0     0
SMALL
USER_CHARGES

@<TRIPOS>ATOM
      1 C1         -2.1749   -7.6644    3.5808 C.3       1 <0>        -0.1192
      2 C2         -1.8592   -6.2834    4.0949 C.ar      1 <0>        -0.0543
      3 C3         -2.2751   -5.9051    5.3565 C.ar      1 <0>        -0.1471
      4 C4         -1.9833   -4.6323    5.8297 C.ar      1 <0>         0.2036
      5 C5         -1.2737   -3.7437    5.0316 C.ar      1 <0>        -0.1053
      6 C6         -0.8608   -4.1283    3.7713 C.ar      1 <0>        -0.6202
      7 C7         -1.1485   -5.3984    3.3053 C.ar      1 <0>        -0.0867
      8 S1          0.0388   -3.0020    2.7580 S.o2      1 <0>         2.6882
      9 O1         -0.0251   -3.5086    1.4319 O.2       1 <0>        -0.9509
     10 O2         -0.4141   -1.6988    3.0983 O.2       1 <0>        -0.9603
     11 N1          1.6264   -3.0873    3.2213 N.pl3     1 <0>        -0.9870
     12 C8          2.4876   -4.1782    2.7448 C.3       1 <0>         0.1537
     13 H1          2.7749   -4.8104    3.5849 H         1 <0>         0.0756
     14 C9          3.7412   -3.5731    2.1051 C.3       1 <0>        -0.1274
     15 C10         4.4154   -2.6311    3.1053 C.3       1 <0>        -0.1206
     16 C11         3.4573   -1.4922    3.4616 C.3       1 <0>        -0.1266
     17 C12         2.2020   -2.0702    4.1117 C.3       1 <0>         0.1413
     18 H2          1.4762   -1.2734    4.2737 H         1 <0>         0.1041
     19 C13         2.5719   -2.7111    5.4509 C.3       1 <0>        -0.1659
     20 C14         1.7319   -5.0133    1.7093 C.3       1 <0>        -0.1965
     21 N2         -2.4028   -4.2463    7.1048 N.pl3     1 <0>        -0.8764
     22 H3         -1.3713   -8.3472    3.8565 H         1 <0>         0.0755
     23 H4         -3.1114   -8.0097    4.0187 H         1 <0>         0.0695
     24 H5         -2.2704   -7.6350    2.4954 H         1 <0>         0.0727
     25 H6         -2.8269   -6.5982    5.9742 H         1 <0>         0.1279
     26 H7         -1.0454   -2.7531    5.3963 H         1 <0>         0.1330
     27 H8         -0.8206   -5.6982    2.3209 H         1 <0>         0.1423
     28 H9          4.4325   -4.3710    1.8340 H         1 <0>         0.0753
     29 H10         3.4606   -3.0150    1.2119 H         1 <0>         0.0709
     30 H11         4.6734   -3.1845    4.0082 H         1 <0>         0.0669
     31 H12         5.3212   -2.2181    2.6614 H         1 <0>         0.0662
     32 H13         3.9465   -0.8090    4.1558 H         1 <0>         0.0772
     33 H14         3.1794   -0.9537    2.5555 H         1 <0>         0.0688
     34 H15         3.3024   -3.5030    5.2853 H         1 <0>         0.0648
     35 H16         2.9987   -1.9551    6.1099 H         1 <0>         0.0688
     36 H17         1.6781   -3.1318    5.9115 H         1 <0>         0.0569
     37 H18         1.5465   -4.4096    0.8208 H         1 <0>         0.1029
     38 H19         2.3293   -5.8840    1.4387 H         1 <0>         0.0720
     39 H20         0.7816   -5.3413    2.1305 H         1 <0>         0.0642
     40 H21        -2.8985   -4.8675    7.6610 H         1 <0>         0.4009
     41 H22        -2.1985   -3.3572    7.4341 H         1 <0>         0.4014
@<TRIPOS>BOND
     1    1    2 1
     2    1   22 1
     3    1   23 1
     4    1   24 1
     5    2    7 ar
     6    2    3 ar
     7    3    4 ar
     8    3   25 1
     9    4    5 ar
    10    4   21 1
    11    5    6 ar
    12    5   26 1
    13    6    7 ar
    14    6    8 1
    15    7   27 1
    16    8    9 2
    17    8   10 2
    18    8   11 1
    19   11   17 1
    20   11   12 1
    21   12   13 1
    22   12   14 1
    23   12   20 1
    24   14   15 1
    25   14   28 1
    26   14   29 1
    27   15   16 1
    28   15   30 1
    29   15   31 1
    30   16   17 1
    31   16   32 1
    32   16   33 1
    33   17   18 1
    34   17   19 1
    35   19   34 1
    36   19   35 1
    37   19   36 1
    38   20   37 1
    39   20   38 1
    40   20   39 1
    41   21   40 1
    42   21   41 1
@<TRIPOS>MOLECULE
ZINC41182097
   29    31     0     0     0
SMALL
USER_CHARGES

@<TRIPOS>ATOM
      1 C1         -0.0184    1.5028    0.0103 C.3       1 <0>        -0.0810
      2 C2          0.0021   -0.0041    0.0020 C.2       1 <0>         0.0646
      3 C3          0.0064   -0.7076   -1.1591 C.2       1 <0>        -0.2313
      4 S1          0.0326   -2.3789   -0.5312 S.3       1 <0>         0.1157
      5 C4          0.0352   -2.0088    1.1107 C.2       1 <0>         0.0639
      6 N1          0.0221   -0.6992    1.1217 N.2       1 <0>        -0.5060
      7 C5          0.0539   -2.9548    2.2837 C.3       1 <0>         0.2322
      8 H1          0.3161   -2.4065    3.1885 H         1 <0>         0.1291
      9 C6         -1.3091   -3.5759    2.4499 C.ar      1 <0>        -0.1055
     10 C7         -2.1807   -3.0818    3.4028 C.ar      1 <0>        -0.0743
     11 C8         -3.4344   -3.6505    3.5576 C.ar      1 <0>         0.0525
     12 C9         -3.8142   -4.7205    2.7512 C.ar      1 <0>         0.0479
     13 C10        -2.9355   -5.2114    1.7984 C.ar      1 <0>        -0.0144
     14 C11        -1.6872   -4.6344    1.6456 C.ar      1 <0>        -0.0973
     15 Cl1        -3.4043   -6.5451    0.7907 Cl        1 <0>        -0.0410
     16 O1         -5.0806   -5.0976    3.0946 O.3       1 <0>        -0.2949
     17 C12        -5.3167   -4.5162    4.3905 C.3       1 <0>         0.2112
     18 O2         -4.4627   -3.3571    4.4060 O.3       1 <0>        -0.3000
     19 N2          1.0473   -4.0104    2.0456 N.3       1 <0>        -0.8280
     20 H2          1.0042    1.8801    0.0026 H         1 <0>         0.0763
     21 H3         -0.5455    1.8639   -0.8728 H         1 <0>         0.0754
     22 H4         -0.5286    1.8543    0.9071 H         1 <0>         0.0753
     23 H5         -0.0033   -0.3543   -2.1797 H         1 <0>         0.1974
     24 H6         -1.8837   -2.2522    4.0272 H         1 <0>         0.1486
     25 H7         -1.0052   -5.0148    0.8996 H         1 <0>         0.1459
     26 H8         -6.3616   -4.2236    4.4944 H         1 <0>         0.1392
     27 H9         -5.0324   -5.2119    5.1800 H         1 <0>         0.0917
     28 H10         1.1251   -4.6208    2.8453 H         1 <0>         0.3624
     29 H11         0.8263   -4.5335    1.2116 H         1 <0>         0.3448
@<TRIPOS>BOND
     1    1    2 1
     2    1   20 1
     3    1   21 1
     4    1   22 1
     5    2    6 1
     6    2    3 2
     7    3    4 1
     8    3   23 1
     9    4    5 1
    10    5    6 2
    11    5    7 1
    12    7    8 1
    13    7    9 1
    14    7   19 1
    15    9   14 ar
    16    9   10 ar
    17   10   11 ar
    18   10   24 1
    19   11   18 1
    20   11   12 ar
    21   12   13 ar
    22   12   16 1
    23   13   14 ar
    24   13   15 1
    25   14   25 1
    26   16   17 1
    27   17   18 1
    28   17   26 1
    29   17   27 1
    30   19   28 1
    31   19   29 1
@<TRIPOS>MOLECULE
ZINC50566418
   41    42     0     0     0
SMALL
USER_CHARGES

@<TRIPOS>ATOM
      1 C1         -2.3397   -0.5953   -1.3744 C.3       1 <0>        -0.1234
      2 C2         -1.0900   -1.0135   -0.6434 C.ar      1 <0>        -0.0378
      3 C3          0.1650   -0.7647   -1.1736 C.ar      1 <0>         0.0661
      4 N1          1.2473   -1.1382   -0.5194 N.ar      1 <0>        -0.2153
      5 N2          1.1994   -1.7367    0.6142 N.ar      1 <0>        -0.2427
      6 C4          0.0521   -2.0246    1.2132 C.ar      1 <0>         0.3670
      7 C5         -1.1607   -1.6612    0.5969 C.ar      1 <0>        -0.1138
      8 C6         -2.4589   -1.9565    1.2317 C.2       1 <0>         0.4132
      9 S1         -3.2128   -0.7832    2.2246 S.2       1 <0>        -0.5135
     10 N3         -3.0516   -3.1500    1.0301 N.pl3     1 <0>        -0.7511
     11 N4          0.0468   -2.6721    2.4363 N.pl3     1 <0>        -0.6557
     12 C7         -0.0454   -1.9076    3.6876 C.3       1 <0>         0.1480
     13 C8          1.1161   -2.3137    4.6002 C.3       1 <0>        -0.1374
     14 C9          1.1042   -3.8323    4.7891 C.3       1 <0>        -0.1110
     15 C10         1.2922   -4.5182    3.4340 C.3       1 <0>        -0.1029
     16 H1          2.2336   -4.1947    2.9900 H         1 <0>         0.0788
     17 C11         0.1270   -4.1374    2.5080 C.3       1 <0>         0.1777
     18 H2         -0.8058   -4.5353    2.9073 H         1 <0>         0.0643
     19 C12         0.3738   -4.7066    1.1094 C.3       1 <0>        -0.1636
     20 C13         1.3138   -6.0356    3.6283 C.3       1 <0>        -0.1480
     21 C14         0.2941   -0.0656   -2.5024 C.3       1 <0>        -0.1042
     22 H3         -2.5631    0.4467   -1.1454 H         1 <0>         0.0975
     23 H4         -2.1872   -0.7067   -2.4479 H         1 <0>         0.0899
     24 H5         -3.1727   -1.2233   -1.0586 H         1 <0>         0.0684
     25 H6         -2.6687   -3.7817    0.4013 H         1 <0>         0.4032
     26 H7         -3.8611   -3.3774    1.5137 H         1 <0>         0.4260
     27 H8          0.0166   -0.8414    3.4698 H         1 <0>         0.0724
     28 H9         -0.9920   -2.1274    4.1812 H         1 <0>         0.0620
     29 H10         2.0592   -2.0110    4.1453 H         1 <0>         0.0686
     30 H11         1.0056   -1.8257    5.5686 H         1 <0>         0.0726
     31 H12         1.9149   -4.1214    5.4580 H         1 <0>         0.0647
     32 H13         0.1511   -4.1371    5.2213 H         1 <0>         0.0614
     33 H14         1.3491   -4.3780    0.7502 H         1 <0>         0.0706
     34 H15         0.3498   -5.7955    1.1508 H         1 <0>         0.0761
     35 H16        -0.4018   -4.3517    0.4306 H         1 <0>         0.0428
     36 H17         0.3718   -6.3587    4.0712 H         1 <0>         0.0546
     37 H18         1.4477   -6.5237    2.6628 H         1 <0>         0.0568
     38 H19         2.1375   -6.3056    4.2892 H         1 <0>         0.0591
     39 H20         0.3480    1.0113   -2.3426 H         1 <0>         0.0892
     40 H21         1.2003   -0.4042   -3.0046 H         1 <0>         0.0866
     41 H22        -0.5727   -0.2982   -3.1210 H         1 <0>         0.0830
@<TRIPOS>BOND
     1    1    2 1
     2    1   22 1
     3    1   23 1
     4    1   24 1
     5    2    7 ar
     6    2    3 ar
     7    3    4 ar
     8    3   21 1
     9    4    5 ar
    10    5    6 ar
    11    6    7 ar
    12    6   11 1
    13    7    8 1
    14    8    9 2
    15    8   10 1
    16   10   25 1
    17   10   26 1
    18   11   17 1
    19   11   12 1
    20   12   13 1
    21   12   27 1
    22   12   28 1
    23   13   14 1
    24   13   29 1
    25   13   30 1
    26   14   15 1
    27   14   31 1
    28   14   32 1
    29   15   16 1
    30   15   17 1
    31   15   20 1
    32   17   18 1
    33   17   19 1
    34   19   33 1
    35   19   34 1
    36   19   35 1
    37   20   36 1
    38   20   37 1
    39   20   38 1
    40   21   39 1
    41   21   40 1
    42   21   41 1
@<TRIPOS>MOLECULE
ZINC04543276
   36    39     0     0     0
SMALL
USER_CHARGES

@<TRIPOS>ATOM
      1 C1         -0.0187    1.5258    0.0104 C.3       1 <0>        -0.1474
      2 C2          0.0021   -0.0041    0.0020 C.3       1 <0>        -0.0862
      3 H1          0.5120   -0.3574   -0.8942 H         1 <0>         0.0760
      4 C3         -1.4336   -0.5367    0.0191 C.3       1 <0>        -0.1166
      5 C4         -1.4317   -2.0453   -0.2363 C.3       1 <0>        -0.0555
      6 C5         -0.4663   -2.7048    0.7385 C.2       1 <0>        -0.0206
      7 C6          0.4822   -1.9853    1.3777 C.2       1 <0>        -0.2204
      8 S1          1.3428   -3.1618    2.3851 S.3       1 <0>         0.2057
      9 C7          0.4967   -4.5335    1.9913 C.2       1 <0>         0.0896
     10 C8         -0.4713   -4.1212    1.0640 C.2       1 <0>        -0.2851
     11 C9         -1.3809   -5.1524    0.5140 C.2       1 <0>         0.5999
     12 O1         -2.1223   -4.9104   -0.4207 O.2       1 <0>        -0.5240
     13 N1         -1.3532   -6.3720    1.0921 N.am      1 <0>        -0.7332
     14 C10        -0.6038   -6.6697    2.3079 C.3       1 <0>         0.4804
     15 H2         -0.3152   -7.7208    2.3007 H         1 <0>         0.1329
     16 N2          0.6084   -5.8374    2.4084 N.pl3     1 <0>        -0.6891
     17 C11        -1.4812   -6.4075    3.5048 C.2       1 <0>        -0.0675
     18 C12        -2.8202   -6.5305    3.5406 C.2       1 <0>        -0.1763
     19 C13        -3.2280   -6.1886    4.8504 C.2       1 <0>        -0.2151
     20 C14        -2.1138   -5.8771    5.5366 C.2       1 <0>        -0.0291
     21 O2         -1.0582   -6.0170    4.7182 O.3       1 <0>        -0.1636
     22 C15         0.7390   -0.5154    1.2486 C.3       1 <0>        -0.0246
     23 H3          1.0039    1.9031    0.0027 H         1 <0>         0.0570
     24 H4         -0.5459    1.8868   -0.8726 H         1 <0>         0.0585
     25 H5         -0.5289    1.8773    0.9072 H         1 <0>         0.0564
     26 H6         -1.8833   -0.3345    0.9912 H         1 <0>         0.0647
     27 H7         -2.0139   -0.0386   -0.7576 H         1 <0>         0.0703
     28 H8         -2.4348   -2.4433   -0.0829 H         1 <0>         0.0814
     29 H9         -1.1102   -2.2425   -1.2589 H         1 <0>         0.0803
     30 H10        -1.8588   -7.0884    0.6772 H         1 <0>         0.4112
     31 H11         1.4432   -6.1927    2.7516 H         1 <0>         0.4271
     32 H12        -3.4608   -6.8321    2.7251 H         1 <0>         0.1481
     33 H13        -4.2400   -6.1790    5.2275 H         1 <0>         0.1513
     34 H14        -2.0744   -5.5703    6.5714 H         1 <0>         0.2058
     35 H15         1.8088   -0.3354    1.1423 H         1 <0>         0.0785
     36 H16         0.3654    0.0001    2.1333 H         1 <0>         0.0793
@<TRIPOS>BOND
     1    1    2 1
     2    1   23 1
     3    1   24 1
     4    1   25 1
     5    2    3 1
     6    2   22 1
     7    2    4 1
     8    4    5 1
     9    4   26 1
    10    4   27 1
    11    5    6 1
    12    5   28 1
    13    5   29 1
    14    6   10 1
    15    6    7 2
    16    7    8 1
    17    7   22 1
    18    8    9 1
    19    9   16 1
    20    9   10 2
    21   10   11 1
    22   11   12 2
    23   11   13 am
    24   13   14 1
    25   13   30 1
    26   14   15 1
    27   14   16 1
    28   14   17 1
    29   16   31 1
    30   17   21 1
    31   17   18 2
    32   18   19 1
    33   18   32 1
    34   19   20 2
    35   19   33 1
    36   20   21 1
    37   20   34 1
    38   22   35 1
    39   22   36 1
@<TRIPOS>MOLECULE
ZINC15809768
   21    22     0     0     0
SMALL
USER_CHARGES
8-bromo-3-methyl-1,6-naphthyridine-2-carboxylic acid
@<TRIPOS>ATOM
      1 C1         -0.4876    1.4572    0.0787 C.3       1 <0>        -0.1095
      2 C2         -0.2258   -0.0262    0.0352 C.ar      1 <0>        -0.0956
      3 C3         -0.3394   -0.7069   -1.1444 C.ar      1 <0>        -0.0688
      4 C4         -0.0808   -2.0882   -1.1393 C.ar      1 <0>        -0.1598
      5 C5         -0.1671   -2.8670   -2.3044 C.ar      1 <0>         0.1674
      6 N1          0.0787   -4.1550   -2.2499 N.ar      1 <0>        -0.4899
      7 C6          0.4121   -4.7739   -1.1258 C.ar      1 <0>         0.1077
      8 C7          0.5231   -4.1095    0.0579 C.ar      1 <0>        -0.1110
      9 C8          0.2745   -2.7213    0.0824 C.ar      1 <0>         0.1539
     10 N2          0.3648   -2.0102    1.2021 N.ar      1 <0>        -0.4184
     11 C9          0.1289   -0.7111    1.2061 C.ar      1 <0>         0.1578
     12 C10         0.2413    0.0411    2.4790 C.2       1 <0>         0.4971
     13 O1          0.1320    1.2502    2.4812 O.co2     1 <0>        -0.6103
     14 Br1         1.0019   -5.0305    1.6385 Br        1 <0>        -0.0151
     15 H1          0.4587    1.9950    0.0193 H         1 <0>         0.0741
     16 H2         -1.1194    1.7395   -0.7635 H         1 <0>         0.0474
     17 H3         -0.9913    1.7102    1.0116 H         1 <0>         0.1088
     18 H4         -0.6159   -0.1970   -2.0554 H         1 <0>         0.1445
     19 H5         -0.4358   -2.4069   -3.2438 H         1 <0>         0.1681
     20 H6          0.6012   -5.8370   -1.1495 H         1 <0>         0.1622
     21 O2          0.4646   -0.6169    3.6324 O.co2     1 <0>        -0.7105
@<TRIPOS>BOND
     1    1    2 1
     2    1   15 1
     3    1   16 1
     4    1   17 1
     5    2   11 ar
     6    2    3 ar
     7    3    4 ar
     8    3   18 1
     9    4    9 ar
    10    4    5 ar
    11    5    6 ar
    12    5   19 1
    13    6    7 ar
    14    7    8 ar
    15    7   20 1
    16    8    9 ar
    17    8   14 1
    18    9   10 ar
    19   10   11 ar
    20   11   12 1
    21   12   13 2
    22   12   21 1
@<TRIPOS>MOLECULE
ZINC37393508
   25    26     0     0     0
SMALL
USER_CHARGES

@<TRIPOS>ATOM
      1 C1         -0.0187    1.5258    0.0104 C.3       1 <0>        -0.1475
      2 C2          0.0021   -0.0041    0.0020 C.3       1 <0>        -0.0252
      3 C3          0.7074   -0.4901   -1.2379 C.2       1 <0>         0.1311
      4 N1          0.1562   -0.7433   -2.3910 N.2       1 <0>        -0.2870
      5 N2          1.0455   -1.1399   -3.2296 N.2       1 <0>        -0.3410
      6 C4          2.2252   -1.1624   -2.6539 C.2       1 <0>         0.3788
      7 N3          2.0484   -0.7420   -1.3635 N.pl3     1 <0>        -0.4673
      8 C5          3.0315   -0.6015   -0.3774 C.ar      1 <0>         0.2077
      9 C6          3.3252    0.6578    0.1344 C.ar      1 <0>        -0.1133
     10 C7          4.2916    0.8012    1.1047 C.ar      1 <0>        -0.0477
     11 C8          4.9782   -0.3213    1.5762 C.ar      1 <0>        -0.0279
     12 C9          4.6801   -1.5864    1.0597 C.ar      1 <0>         0.0200
     13 C10         3.7072   -1.7214    0.0915 C.ar      1 <0>        -0.0793
     14 Cl1         5.5292   -2.9849    1.6402 Cl        1 <0>        -0.0472
     15 C11         5.9843   -0.1764    2.5849 C.1       1 <0>         0.2600
     16 N4          6.7824   -0.0614    3.3851 N.1       1 <0>        -0.4080
     17 S1          3.7480   -1.6372   -3.4023 S.3       1 <0>        -0.7906
     18 H1          1.0039    1.9031    0.0027 H         1 <0>         0.0524
     19 H2         -0.5459    1.8868   -0.8726 H         1 <0>         0.0621
     20 H3         -0.5289    1.8773    0.9072 H         1 <0>         0.0623
     21 H4          0.5293   -0.3651    0.8851 H         1 <0>         0.0723
     22 H5         -1.0205   -0.3814    0.0098 H         1 <0>         0.0914
     23 H6          2.7945    1.5250   -0.2301 H         1 <0>         0.1443
     24 H7          4.5191    1.7799    1.5007 H         1 <0>         0.1489
     25 H8          3.4733   -2.6981   -0.3057 H         1 <0>         0.1507
@<TRIPOS>BOND
     1    1    2 1
     2    1   18 1
     3    1   19 1
     4    1   20 1
     5    2   21 1
     6    2   22 1
     7    2    3 1
     8    3    7 1
     9    3    4 2
    10    4    5 1
    11    5    6 2
    12    6   17 1
    13    6    7 1
    14    7    8 1
    15    8   13 ar
    16    8    9 ar
    17    9   10 ar
    18    9   23 1
    19   10   11 ar
    20   10   24 1
    21   11   12 ar
    22   11   15 1
    23   12   13 ar
    24   12   14 1
    25   13   25 1
    26   15   16 3
@<TRIPOS>MOLECULE
ZINC42411100
   34    35     0     0     0
SMALL
USER_CHARGES

@<TRIPOS>ATOM
      1 C1          0.9526   -0.5178   -0.1220 C.3       1 <0>        -0.1453
      2 C2          0.0004   -1.6985   -0.3225 C.3       1 <0>        -0.0663
      3 C3         -1.4206   -1.2369   -0.1257 C.2       1 <0>        -0.0525
      4 C4         -2.0664   -1.3536    1.0818 C.2       1 <0>        -0.1705
      5 C5         -3.3457   -0.9174    1.1900 C.2       1 <0>        -0.2464
      6 S1         -3.7131   -0.3351   -0.3424 S.3       1 <0>         0.2033
      7 C6         -2.1577   -0.6620   -1.1497 C.2       1 <0>        -0.2331
      8 C7         -1.7619   -0.3946   -2.5356 C.2       1 <0>         0.5962
      9 O1         -0.6799    0.1096   -2.7729 O.2       1 <0>        -0.5214
     10 N1         -2.5960   -0.7072   -3.5469 N.am      1 <0>        -0.5988
     11 C8         -3.9432   -1.2258   -3.2731 C.3       1 <0>         0.0977
     12 C9         -4.1292   -2.5418   -4.0350 C.3       1 <0>        -0.1331
     13 C10        -3.8332   -2.3136   -5.5190 C.3       1 <0>        -0.0944
     14 C11        -2.3816   -1.8591   -5.6874 C.3       1 <0>        -0.1669
     15 H1         -1.7135   -2.6153   -5.2754 H         1 <0>         0.0663
     16 C12        -2.1778   -0.5301   -4.9442 C.3       1 <0>         0.1397
     17 C13        -2.0814   -1.6666   -7.1516 C.2       1 <0>         0.4997
     18 O2         -1.2581   -0.8382   -7.5013 O.co2     1 <0>        -0.6947
     19 O3         -2.6618   -2.3394   -7.9865 O.co2     1 <0>        -0.6952
     20 H2          1.9804   -0.8516   -0.2643 H         1 <0>         0.0560
     21 H3          0.7206    0.2631   -0.8462 H         1 <0>         0.0739
     22 H4          0.8351   -0.1236    0.8875 H         1 <0>         0.0478
     23 H5          0.1179   -2.0926   -1.3319 H         1 <0>         0.0753
     24 H6          0.2324   -2.4793    0.4018 H         1 <0>         0.0687
     25 H7         -1.5620   -1.7872    1.9327 H         1 <0>         0.1331
     26 H8         -3.9828   -0.9395    2.0618 H         1 <0>         0.1845
     27 H9         -4.0559   -1.4037   -2.2036 H         1 <0>         0.0796
     28 H10        -4.6878   -0.5026   -3.6058 H         1 <0>         0.0721
     29 H11        -3.4446   -3.2916   -3.6385 H         1 <0>         0.0621
     30 H12        -5.1562   -2.8879   -3.9178 H         1 <0>         0.0705
     31 H13        -3.9887   -3.2427   -6.0673 H         1 <0>         0.0717
     32 H14        -4.5017   -1.5459   -5.9088 H         1 <0>         0.0567
     33 H15        -2.7813    0.2487   -5.4104 H         1 <0>         0.0659
     34 H16        -1.1252   -0.2488   -4.9777 H         1 <0>         0.0981
@<TRIPOS>BOND
     1    1    2 1
     2    1   20 1
     3    1   21 1
     4    1   22 1
     5    2    3 1
     6    2   23 1
     7    2   24 1
     8    3    7 2
     9    3    4 1
    10    4    5 2
    11    4   25 1
    12    5    6 1
    13    5   26 1
    14    6    7 1
    15    7    8 1
    16    8    9 2
    17    8   10 am
    18   10   16 1
    19   10   11 1
    20   11   12 1
    21   11   27 1
    22   11   28 1
    23   12   13 1
    24   12   29 1
    25   12   30 1
    26   13   14 1
    27   13   31 1
    28   13   32 1
    29   14   15 1
    30   14   16 1
    31   14   17 1
    32   16   33 1
    33   16   34 1
    34   17   18 2
    35   17   19 1
@<TRIPOS>MOLECULE
ZINC49646728
   24    26     0     0     0
SMALL
USER_CHARGES

@<TRIPOS>ATOM
      1 C1         -0.0163    1.3530    0.0095 C.2       1 <0>        -0.1489
      2 C2          1.1781    2.0409    0.0018 C.2       1 <0>        -0.1464
      3 C3          2.3472    1.3289   -0.0132 C.2       1 <0>        -0.0525
      4 S1          1.7524   -0.3545   -0.0166 S.3       1 <0>         0.0568
      5 C4          0.0021   -0.0041    0.0020 C.2       1 <0>        -0.1873
      6 C5          3.7404    1.8250   -0.0243 C.2       1 <0>         0.1183
      7 C6          4.8632    1.0521   -0.0446 C.2       1 <0>        -0.0854
      8 N1          5.9355    1.9037   -0.0485 N.pl3     1 <0>        -0.3528
      9 C7          7.2755    1.6816   -0.0659 C.2       1 <0>         0.0729
     10 C8          8.1569    2.7403   -0.0657 C.2       1 <0>        -0.1502
     11 C9          7.6618    4.0700   -0.0471 C.2       1 <0>        -0.0435
     12 C10         6.3237    4.2845   -0.0297 C.2       1 <0>        -0.1196
     13 C11         5.4384    3.1836   -0.0304 C.2       1 <0>         0.2422
     14 N2          4.1168    3.1157   -0.0219 N.2       1 <0>        -0.4917
     15 C12         9.6075    2.4930   -0.0841 C.2       1 <0>         0.5318
     16 O1         10.0324    1.3457   -0.0997 O.co2     1 <0>        -0.6810
     17 O2         10.3887    3.4346   -0.0838 O.co2     1 <0>        -0.6737
     18 H1         -0.9549    1.8871    0.0258 H         1 <0>         0.1337
     19 H2          1.1914    3.1208    0.0071 H         1 <0>         0.1393
     20 H3         -0.8285   -0.6944    0.0062 H         1 <0>         0.1854
     21 H4          4.9000   -0.0272   -0.0549 H         1 <0>         0.1810
     22 H5          7.6520    0.6694   -0.0797 H         1 <0>         0.1740
     23 H6          8.3465    4.9052   -0.0463 H         1 <0>         0.1502
     24 H7          5.9360    5.2924   -0.0152 H         1 <0>         0.1476
@<TRIPOS>BOND
     1    1    5 2
     2    1    2 1
     3    1   18 1
     4    2    3 2
     5    2   19 1
     6    3    4 1
     7    3    6 1
     8    4    5 1
     9    5   20 1
    10    6   14 1
    11    6    7 2
    12    7    8 1
    13    7   21 1
    14    8   13 1
    15    8    9 1
    16    9   10 2
    17    9   22 1
    18   10   11 1
    19   10   15 1
    20   11   12 2
    21   11   23 1
    22   12   13 1
    23   12   24 1
    24   13   14 2
    25   15   16 2
    26   15   17 1
@<TRIPOS>MOLECULE
ZINC62758219
   39    40     0     0     0
SMALL
USER_CHARGES

@<TRIPOS>ATOM
      1 C1         -0.0187    1.5258    0.0104 C.3       1 <0>        -0.1429
      2 C2          0.0021   -0.0041    0.0020 C.3       1 <0>        -0.0313
      3 C3          0.7074   -0.4901   -1.2379 C.2       1 <0>        -0.2551
      4 C4          0.1088   -0.7600   -2.4728 C.2       1 <0>         0.0554
      5 N1          1.0405   -1.1596   -3.3000 N.2       1 <0>        -0.2841
      6 N2          2.2632   -1.1566   -2.6165 N.pl3     1 <0>        -0.3124
      7 C5          2.0328   -0.7369   -1.3548 C.2       1 <0>         0.1256
      8 C6          3.0657   -0.5754   -0.2695 C.3       1 <0>        -0.0856
      9 C7          3.5635   -1.5365   -3.1744 C.3       1 <0>         0.1830
     10 H1          4.3316   -1.4346   -2.4078 H         1 <0>         0.0853
     11 C8          3.5089   -2.9891   -3.6517 C.3       1 <0>        -0.1244
     12 C9          2.4306   -3.1322   -4.7278 C.3       1 <0>        -0.1253
     13 C10         2.7649   -2.2194   -5.9093 C.3       1 <0>        -0.1074
     14 C11         2.8196   -0.7668   -5.4320 C.3       1 <0>        -0.1056
     15 C12         3.8978   -0.6237   -4.3559 C.3       1 <0>        -0.1650
     16 H2          4.8652   -0.9063   -4.7711 H         1 <0>         0.0690
     17 C13         3.9515    0.8071   -3.8858 C.2       1 <0>         0.4940
     18 O1          4.8123    1.5573   -4.3134 O.co2     1 <0>        -0.7072
     19 O2          3.1343    1.2145   -3.0780 O.co2     1 <0>        -0.6754
     20 C14        -1.3562   -0.6154   -2.7951 C.3       1 <0>        -0.0623
     21 H3          1.0039    1.9031    0.0027 H         1 <0>         0.0550
     22 H4         -0.5459    1.8868   -0.8726 H         1 <0>         0.0511
     23 H5         -0.5289    1.8773    0.9072 H         1 <0>         0.0421
     24 H6          0.5293   -0.3651    0.8851 H         1 <0>         0.0545
     25 H7         -1.0205   -0.3814    0.0098 H         1 <0>         0.0566
     26 H8          3.1598   -1.5095    0.2845 H         1 <0>         0.0640
     27 H9          4.0263   -0.3202   -0.7171 H         1 <0>         0.0688
     28 H10         2.7583    0.2201    0.4093 H         1 <0>         0.0770
     29 H11         4.4763   -3.2718   -4.0669 H         1 <0>         0.0716
     30 H12         3.2707   -3.6394   -2.8100 H         1 <0>         0.0573
     31 H13         2.3917   -4.1671   -5.0678 H         1 <0>         0.0461
     32 H14         1.4632   -2.8496   -4.3126 H         1 <0>         0.0943
     33 H15         3.7324   -2.5021   -6.3244 H         1 <0>         0.0467
     34 H16         1.9968   -2.3213   -6.6759 H         1 <0>         0.0520
     35 H17         3.0577   -0.1165   -6.2737 H         1 <0>         0.0462
     36 H18         1.8522   -0.4841   -5.0168 H         1 <0>         0.0936
     37 H19        -1.5497    0.3923   -3.1628 H         1 <0>         0.0667
     38 H20        -1.6333   -1.3408   -3.5601 H         1 <0>         0.0615
     39 H21        -1.9454   -0.7932   -1.8954 H         1 <0>         0.0664
@<TRIPOS>BOND
     1    1    2 1
     2    1   21 1
     3    1   22 1
     4    1   23 1
     5    2    3 1
     6    2   24 1
     7    2   25 1
     8    3    7 2
     9    3    4 1
    10    4    5 2
    11    4   20 1
    12    5    6 1
    13    6    7 1
    14    6    9 1
    15    7    8 1
    16    8   26 1
    17    8   27 1
    18    8   28 1
    19    9   10 1
    20    9   15 1
    21    9   11 1
    22   11   12 1
    23   11   29 1
    24   11   30 1
    25   12   13 1
    26   12   31 1
    27   12   32 1
    28   13   14 1
    29   13   33 1
    30   13   34 1
    31   14   15 1
    32   14   35 1
    33   14   36 1
    34   15   16 1
    35   15   17 1
    36   17   18 2
    37   17   19 1
    38   20   37 1
    39   20   38 1
    40   20   39 1
@<TRIPOS>MOLECULE
ZINC05500582
   32    33     0     0     0
SMALL
USER_CHARGES
2-[1-(benzo[1,3]dioxol-5-ylmethyl)-2,6-dimethyl-4-pyridylidene]-2-benzothiazol-2-yl-acetonitrile
@<TRIPOS>ATOM
      1 C1         -1.7487    1.4716   -0.4258 C.3       1 <0>        -0.1272
      2 C2         -1.5485    1.7563    1.0404 C.2       1 <0>         0.1722
      3 C3         -1.9312    0.8403    1.9587 C.2       1 <0>        -0.1979
      4 C4         -1.7394    1.1152    3.3313 C.2       1 <0>         0.1546
      5 C5         -2.1427    0.1458    4.3485 C.2       1 <0>        -0.1823
      6 C6         -1.9420    0.4384    5.7359 C.1       1 <0>         0.2861
      7 N1         -1.7828    0.6705    6.8365 N.1       1 <0>        -0.4594
      8 C7         -2.7386   -1.0963    3.9576 C.1       1 <0>         0.2861
      9 N2         -3.2112   -2.0816    3.6476 N.1       1 <0>        -0.4594
     10 C8         -1.1507    2.3449    3.7020 C.2       1 <0>        -0.1979
     11 C9         -0.7881    3.2222    2.7387 C.2       1 <0>         0.1721
     12 N3         -0.9802    2.9283    1.4264 N.pl3     1 <0>        -0.4188
     13 C10        -0.5893    3.8539    0.4525 C.ar      1 <0>         0.0845
     14 C11         0.6745    3.7717   -0.1181 C.ar      1 <0>        -0.0861
     15 C12         1.0557    4.6832   -1.0828 C.ar      1 <0>        -0.0973
     16 C13         0.1839    5.6847   -1.4734 C.ar      1 <0>        -0.0165
     17 C14        -1.0740    5.7720   -0.9028 C.ar      1 <0>        -0.0973
     18 C15        -1.4623    4.8600    0.0586 C.ar      1 <0>        -0.0864
     19 Cl1         0.6692    6.8336   -2.6809 Cl        1 <0>        -0.0477
     20 C16        -0.1596    4.5364    3.1247 C.3       1 <0>        -0.1273
     21 H1         -2.1255    0.4565   -0.5507 H         1 <0>         0.0998
     22 H2         -0.7977    1.5730   -0.9488 H         1 <0>         0.0864
     23 H3         -2.4676    2.1794   -0.8386 H         1 <0>         0.0892
     24 H4         -2.3790   -0.0915    1.6462 H         1 <0>         0.1558
     25 H5         -0.9917    2.5817    4.7436 H         1 <0>         0.1558
     26 H6          1.3568    2.9932    0.1896 H         1 <0>         0.1435
     27 H7          2.0366    4.6171   -1.5299 H         1 <0>         0.1482
     28 H8         -1.7524    6.5545   -1.2094 H         1 <0>         0.1482
     29 H9         -2.4437    4.9290    0.5040 H         1 <0>         0.1434
     30 H10        -0.1653    4.6370    4.2100 H         1 <0>         0.0998
     31 H11         0.8680    4.5680    2.7623 H         1 <0>         0.0892
     32 H12        -0.7267    5.3546    2.6809 H         1 <0>         0.0864
@<TRIPOS>BOND
     1    1    2 1
     2    1   21 1
     3    1   22 1
     4    1   23 1
     5    2   12 1
     6    2    3 2
     7    3    4 1
     8    3   24 1
     9    4    5 2
    10    4   10 1
    11    5    6 1
    12    5    8 1
    13    6    7 3
    14    8    9 3
    15   10   11 2
    16   10   25 1
    17   11   12 1
    18   11   20 1
    19   12   13 1
    20   13   18 ar
    21   13   14 ar
    22   14   15 ar
    23   14   26 1
    24   15   16 ar
    25   15   27 1
    26   16   17 ar
    27   16   19 1
    28   17   18 ar
    29   17   28 1
    30   18   29 1
    31   20   30 1
    32   20   31 1
    33   20   32 1
@<TRIPOS>MOLECULE
ZINC01651614
   37    40     0     0     0
SMALL
USER_CHARGES
methylBLAH
@<TRIPOS>ATOM
      1 C1          0.9408    7.3868    0.3372 C.3       1 <0>        -0.1119
      2 C2          1.1045    5.8714    0.4705 C.3       1 <0>         0.2971
      3 C3          2.2430    5.3559   -0.4516 C.3       1 <0>        -0.1900
      4 C4          2.4785    3.9035   -0.0088 C.3       1 <0>         0.1750
      5 H1          3.1955    3.4066   -0.6624 H         1 <0>         0.1143
      6 C5          1.1645    3.1671    0.0092 C.ar      1 <0>        -0.1853
      7 C6          1.1743    1.7817    0.0004 C.ar      1 <0>        -0.0643
      8 C7         -0.0126    1.0758    0.0080 C.ar      1 <0>        -0.1575
      9 C8         -1.2199    1.7501    0.0174 C.ar      1 <0>        -0.0743
     10 C9         -1.2371    3.1300    0.0326 C.ar      1 <0>        -0.1507
     11 C10        -0.0438    3.8432    0.0274 C.ar      1 <0>         0.1545
     12 O1         -0.0955    5.2031    0.0434 O.3       1 <0>        -0.3099
     13 N1          2.9913    3.9730    1.4003 N.pl3     1 <0>        -0.6099
     14 C11         4.3162    3.4075    1.5286 C.3       1 <0>         0.1317
     15 C12         5.2483    4.0380    2.4392 C.3       1 <0>        -0.1413
     16 C13         4.9980    4.5292    3.8157 C.3       1 <0>        -0.1059
     17 C14         3.8184    4.1251    4.6425 C.3       1 <0>        -0.1405
     18 S1          2.2047    4.3222    3.9761 S.3       1 <0>         0.0134
     19 C15         2.2175    4.5974    2.2829 C.2       1 <0>         0.4160
     20 N2          1.3614    5.5163    1.8521 N.2       1 <0>        -0.6089
     21 H2          1.8536    7.8814    0.6693 H         1 <0>         0.0750
     22 H3          0.7483    7.6412   -0.7050 H         1 <0>         0.0709
     23 H4          0.1040    7.7174    0.9525 H         1 <0>         0.0779
     24 H5          3.1437    5.9489   -0.2928 H         1 <0>         0.0868
     25 H6          1.9501    5.3870   -1.5010 H         1 <0>         0.0940
     26 H7          2.1149    1.2511   -0.0120 H         1 <0>         0.1209
     27 H8          0.0021   -0.0041    0.0020 H         1 <0>         0.1254
     28 H9         -2.1479    1.1976    0.0172 H         1 <0>         0.1307
     29 H10        -2.1797    3.6570    0.0440 H         1 <0>         0.1319
     30 H11         4.2037    2.3684    1.8378 H         1 <0>         0.0563
     31 H12         4.7719    3.4050    0.5384 H         1 <0>         0.0859
     32 H13         5.6580    4.8891    1.8952 H         1 <0>         0.0622
     33 H14         6.0873    3.3473    2.5234 H         1 <0>         0.0795
     34 H15         4.9772    5.6174    3.7573 H         1 <0>         0.0620
     35 H16         5.8848    4.2802    4.3986 H         1 <0>         0.0812
     36 H17         3.8606    4.6907    5.5734 H         1 <0>         0.1159
     37 H18         3.9421    3.0727    4.8977 H         1 <0>         0.0916
@<TRIPOS>BOND
     1    1    2 1
     2    1   21 1
     3    1   22 1
     4    1   23 1
     5    2   12 1
     6    2   20 1
     7    2    3 1
     8    3    4 1
     9    3   24 1
    10    3   25 1
    11    4    5 1
    12    4    6 1
    13    4   13 1
    14    6   11 ar
    15    6    7 ar
    16    7    8 ar
    17    7   26 1
    18    8    9 ar
    19    8   27 1
    20    9   10 ar
    21    9   28 1
    22   10   11 ar
    23   10   29 1
    24   11   12 1
    25   13   19 1
    26   13   14 1
    27   14   15 1
    28   14   30 1
    29   14   31 1
    30   15   16 1
    31   15   32 1
    32   15   33 1
    33   16   17 1
    34   16   34 1
    35   16   35 1
    36   17   18 1
    37   17   36 1
    38   17   37 1
    39   18   19 1
    40   19   20 2
@<TRIPOS>MOLECULE
ZINC43425419
   45    47     0     0     0
SMALL
USER_CHARGES

@<TRIPOS>ATOM
      1 C1          2.0352   -1.0022   -2.2494 C.3       1 <0>        -0.1476
      2 C2          1.0290   -1.2681   -1.1279 C.3       1 <0>        -0.0917
      3 H1          0.3107   -2.0198   -1.4549 H         1 <0>         0.0739
      4 C3          0.2911    0.0282   -0.7869 C.3       1 <0>        -0.1217
      5 C4         -0.7151   -0.2377    0.3346 C.3       1 <0>        -0.1113
      6 C5          0.0249   -0.7445    1.5741 C.3       1 <0>        -0.0004
      7 H2         -0.6919   -0.9339    2.3731 H         1 <0>         0.1133
      8 C6          0.7628   -2.0407    1.2331 C.3       1 <0>         0.0947
      9 H3          0.0445   -2.7925    0.9061 H         1 <0>         0.0708
     10 C7          1.7690   -1.7749    0.1116 C.3       1 <0>        -0.1220
     11 N1          1.4733   -2.5274    2.4232 N.3       1 <0>        -0.5297
     12 C8          0.7888   -2.1055    3.6551 C.3       1 <0>         0.0091
     13 C9          1.5825   -2.5893    4.8710 C.3       1 <0>         0.0649
     14 O1          1.7496   -4.0088    4.7982 O.3       1 <0>        -0.3798
     15 C10         2.4188   -4.4423    3.6127 C.3       1 <0>         0.0982
     16 H4          3.4154   -4.0023    3.5769 H         1 <0>         0.0662
     17 C11         1.6169   -3.9887    2.3897 C.3       1 <0>         0.0588
     18 H5          0.6300   -4.4509    2.4109 H         1 <0>         0.0530
     19 C12         2.3506   -4.4164    1.1184 C.3       1 <0>        -0.1199
     20 C13         2.4798   -5.9416    1.1000 C.3       1 <0>        -0.1219
     21 C14         3.2635   -6.4069    2.3283 C.3       1 <0>        -0.1179
     22 C15         2.5347   -5.9668    3.6005 C.3       1 <0>        -0.1114
     23 C16         0.9950    0.2707    2.0158 C.1       1 <0>         0.2174
     24 N2          1.7437    1.0542    2.3566 N.1       1 <0>        -0.4267
     25 H6          2.5609   -1.9256   -2.4924 H         1 <0>         0.0564
     26 H7          1.5080   -0.6411   -3.1325 H         1 <0>         0.0566
     27 H8          2.7536   -0.2504   -1.9224 H         1 <0>         0.0540
     28 H9          1.0095    0.7799   -0.4599 H         1 <0>         0.0624
     29 H10        -0.2360    0.3892   -1.6700 H         1 <0>         0.0718
     30 H11        -1.2407    0.6857    0.5776 H         1 <0>         0.0768
     31 H12        -1.4334   -0.9895    0.0076 H         1 <0>         0.0856
     32 H13         2.2947   -2.6983   -0.1313 H         1 <0>         0.0876
     33 H14         2.4874   -1.0231    0.4386 H         1 <0>         0.0689
     34 H15         0.7176   -1.0180    3.6770 H         1 <0>         0.0868
     35 H16        -0.2124   -2.5357    3.6800 H         1 <0>         0.0496
     36 H17         2.5606   -2.1084    4.8812 H         1 <0>         0.0588
     37 H18         1.0424   -2.3334    5.7826 H         1 <0>         0.0998
     38 H19         1.7872   -4.0882    0.2450 H         1 <0>         0.0788
     39 H20         3.3434   -3.9667    1.1023 H         1 <0>         0.0744
     40 H21         1.4863   -6.3900    1.1124 H         1 <0>         0.0635
     41 H22         3.0051   -6.2503    0.1962 H         1 <0>         0.0689
     42 H23         3.3464   -7.4937    2.3154 H         1 <0>         0.0708
     43 H24         4.2609   -5.9675    2.3100 H         1 <0>         0.0658
     44 H25         3.0976   -6.2961    4.4738 H         1 <0>         0.0740
     45 H26         1.5381   -6.4077    3.6213 H         1 <0>         0.0705
@<TRIPOS>BOND
     1    1    2 1
     2    1   25 1
     3    1   26 1
     4    1   27 1
     5    2    3 1
     6    2   10 1
     7    2    4 1
     8    4    5 1
     9    4   28 1
    10    4   29 1
    11    5    6 1
    12    5   30 1
    13    5   31 1
    14    6    7 1
    15    6    8 1
    16    6   23 1
    17    8    9 1
    18    8   10 1
    19    8   11 1
    20   10   32 1
    21   10   33 1
    22   11   17 1
    23   11   12 1
    24   12   13 1
    25   12   34 1
    26   12   35 1
    27   13   14 1
    28   13   36 1
    29   13   37 1
    30   14   15 1
    31   15   16 1
    32   15   22 1
    33   15   17 1
    34   17   18 1
    35   17   19 1
    36   19   20 1
    37   19   38 1
    38   19   39 1
    39   20   21 1
    40   20   40 1
    41   20   41 1
    42   21   22 1
    43   21   42 1
    44   21   43 1
    45   22   44 1
    46   22   45 1
    47   23   24 3
@<TRIPOS>MOLECULE
ZINC50331032
   30    32     0     0     0
SMALL
USER_CHARGES

@<TRIPOS>ATOM
      1 C1         -0.0187    1.5258    0.0104 C.3       1 <0>        -0.1525
      2 C2          0.0021   -0.0041    0.0020 C.3       1 <0>        -0.0592
      3 C3          0.6851   -0.4904   -1.2797 C.3       1 <0>        -0.0408
      4 C4          2.1276   -0.0064   -1.2597 C.2       1 <0>         0.1737
      5 C5          2.7546    0.2133   -0.0240 C.2       1 <0>        -0.3561
      6 S1          4.3641    0.7557   -0.5084 S.3       1 <0>         0.2941
      7 C6          4.1359    0.6636   -2.1769 C.2       1 <0>         0.1131
      8 N1          2.8825    0.2393   -2.2989 N.2       1 <0>        -0.5198
      9 C7          5.0951    0.9774   -3.2424 C.2       1 <0>         0.0401
     10 C8          6.3789    1.4058   -3.0650 C.2       1 <0>        -0.1483
     11 C9          6.9272    1.5817   -4.3472 C.2       1 <0>        -0.2138
     12 C10         5.9660    1.2571   -5.2378 C.2       1 <0>        -0.0019
     13 O1          4.8643    0.8876   -4.5678 O.3       1 <0>        -0.1488
     14 C11         2.1686    0.0178    1.2231 C.2       1 <0>         0.4431
     15 O2          2.7718    0.2538    2.2509 O.2       1 <0>        -0.4579
     16 C12         0.7428   -0.5026    1.2431 C.3       1 <0>        -0.1439
     17 C13        -1.4359   -0.5257    0.0323 C.3       1 <0>        -0.1419
     18 H1          1.0039    1.9031    0.0027 H         1 <0>         0.0534
     19 H2         -0.5459    1.8868   -0.8726 H         1 <0>         0.0640
     20 H3         -0.5289    1.8773    0.9072 H         1 <0>         0.0643
     21 H4          0.6627   -1.5795   -1.3181 H         1 <0>         0.0996
     22 H5          0.1712   -0.0801   -2.1490 H         1 <0>         0.0985
     23 H6          6.8770    1.5765   -2.1220 H         1 <0>         0.1604
     24 H7          7.9287    1.9143   -4.5767 H         1 <0>         0.1621
     25 H8          6.0686    1.2861   -6.3126 H         1 <0>         0.2152
     26 H9          0.2365   -0.1413    2.1382 H         1 <0>         0.1047
     27 H10         0.7538   -1.5925    1.2465 H         1 <0>         0.1070
     28 H11        -1.9729   -0.1619   -0.8437 H         1 <0>         0.0642
     29 H12        -1.4273   -1.6156    0.0264 H         1 <0>         0.0623
     30 H13        -1.9321   -0.1711    0.9357 H         1 <0>         0.0648
@<TRIPOS>BOND
     1    1    2 1
     2    1   18 1
     3    1   19 1
     4    1   20 1
     5    2   16 1
     6    2    3 1
     7    2   17 1
     8    3    4 1
     9    3   21 1
    10    3   22 1
    11    4    8 1
    12    4    5 2
    13    5    6 1
    14    5   14 1
    15    6    7 1
    16    7    8 2
    17    7    9 1
    18    9   13 1
    19    9   10 2
    20   10   11 1
    21   10   23 1
    22   11   12 2
    23   11   24 1
    24   12   13 1
    25   12   25 1
    26   14   15 2
    27   14   16 1
    28   16   26 1
    29   16   27 1
    30   17   28 1
    31   17   29 1
    32   17   30 1
@<TRIPOS>MOLECULE
ZINC62960531
   35    37     0     0     0
SMALL
USER_CHARGES

@<TRIPOS>ATOM
      1 C1          0.0010    1.3791   -0.2073 C.ar      1 <0>        -0.2813
      2 C2          1.2028    2.0573    0.0016 C.ar      1 <0>         0.4546
      3 N1          2.3146    1.3530    0.1938 N.ar      1 <0>        -0.5758
      4 C3          2.2864    0.0357    0.1878 C.ar      1 <0>         0.3621
      5 N2          1.1690   -0.6349   -0.0069 N.ar      1 <0>        -0.5606
      6 C4          0.0190   -0.0035   -0.2053 C.ar      1 <0>         0.2527
      7 Cl1        -1.4445   -0.9019   -0.4592 Cl        1 <0>        -0.0159
      8 N3          1.2372    3.4424    0.0083 N.pl3     1 <0>        -0.5879
      9 C5          2.5201    4.1586   -0.0062 C.3       1 <0>         0.1198
     10 C6          2.5526    5.1340    1.1758 C.3       1 <0>        -0.1219
     11 C7          1.3173    6.0257    1.1316 C.3       1 <0>        -0.0616
     12 C8          1.3588    7.0452    2.2900 C.3       1 <0>        -0.1154
     13 C9          0.4613    8.1946    1.7652 C.3       1 <0>        -0.1253
     14 C10         0.7801    8.2672    0.2572 C.3       1 <0>        -0.1250
     15 C11         1.3198    6.8822   -0.1451 C.3       1 <0>        -0.1184
     16 C12         0.0413    5.1960    1.2120 C.3       1 <0>        -0.1198
     17 C13        -0.0086    4.2213    0.0239 C.3       1 <0>         0.1150
     18 H1         -0.9206    1.9206   -0.3621 H         1 <0>         0.1516
     19 H2          3.2049   -0.5097    0.3466 H         1 <0>         0.2054
     20 H3          3.3384    3.4446    0.0864 H         1 <0>         0.0992
     21 H4          2.6191    4.7123   -0.9399 H         1 <0>         0.0678
     22 H5          2.5623    4.5726    2.1101 H         1 <0>         0.0679
     23 H6          3.4488    5.7512    1.1132 H         1 <0>         0.0780
     24 H7          0.9415    6.6136    3.1998 H         1 <0>         0.0661
     25 H8          2.3767    7.3964    2.4594 H         1 <0>         0.0694
     26 H9         -0.5912    7.9582    1.9215 H         1 <0>         0.0647
     27 H10         0.7190    9.1336    2.2551 H         1 <0>         0.0645
     28 H11        -0.1257    8.4929   -0.3055 H         1 <0>         0.0622
     29 H12         1.5355    9.0307    0.0715 H         1 <0>         0.0628
     30 H13         2.3349    6.9743   -0.5314 H         1 <0>         0.0660
     31 H14         0.6722    6.4328   -0.8980 H         1 <0>         0.0656
     32 H15         0.0309    4.6349    2.1465 H         1 <0>         0.0688
     33 H16        -0.8248    5.8567    1.1751 H         1 <0>         0.0808
     34 H17        -0.1021    4.7800   -0.9074 H         1 <0>         0.0772
     35 H18        -0.8589    3.5487    0.1362 H         1 <0>         0.0866
@<TRIPOS>BOND
     1    1    6 ar
     2    1    2 ar
     3    1   18 1
     4    2    3 ar
     5    2    8 1
     6    3    4 ar
     7    4    5 ar
     8    4   19 1
     9    5    6 ar
    10    6    7 1
    11    8   17 1
    12    8    9 1
    13    9   10 1
    14    9   20 1
    15    9   21 1
    16   10   11 1
    17   10   22 1
    18   10   23 1
    19   11   15 1
    20   11   12 1
    21   11   16 1
    22   12   13 1
    23   12   24 1
    24   12   25 1
    25   13   14 1
    26   13   26 1
    27   13   27 1
    28   14   15 1
    29   14   28 1
    30   14   29 1
    31   15   30 1
    32   15   31 1
    33   16   17 1
    34   16   32 1
    35   16   33 1
    36   17   34 1
    37   17   35 1
@<TRIPOS>MOLECULE
ZINC00970805
   37    39     0     0     0
SMALL
USER_CHARGES
isopropylBLAHcarboxylic acid
@<TRIPOS>ATOM
      1 C1         -0.1517   -0.6627   -2.1804 C.3       1 <0>        -0.2121
      2 C2         -0.0157   -2.1863   -2.1471 C.3       1 <0>        -0.1386
      3 C3          0.9999   -2.6308   -3.2015 C.3       1 <0>        -0.1500
      4 C4          0.4621   -2.6255   -0.7616 C.3       1 <0>         0.0937
      5 H1          0.9119   -3.6160   -0.8294 H         1 <0>         0.0850
      6 C5         -0.7289   -2.6704    0.1985 C.3       1 <0>        -0.0848
      7 H2         -0.4525   -3.0107    1.1964 H         1 <0>         0.0958
      8 C6         -1.8451   -3.5239   -0.4667 C.3       1 <0>        -0.0909
      9 C7         -2.5305   -2.5468   -1.4012 C.2       1 <0>        -0.1882
     10 C8         -2.2980   -1.3134   -1.0277 C.2       1 <0>        -0.1395
     11 C9         -1.4193   -1.2895    0.2019 C.3       1 <0>        -0.0143
     12 H3         -2.0228   -1.1772    1.1027 H         1 <0>         0.0844
     13 C10        -0.4182   -0.1752    0.1141 C.ar      1 <0>        -0.1539
     14 C11        -0.8780    1.1255    0.2634 C.ar      1 <0>        -0.0935
     15 C12        -0.0116    2.2006    0.1904 C.ar      1 <0>        -0.1886
     16 C13         1.3319    1.9953   -0.0353 C.ar      1 <0>        -0.0426
     17 C14         1.8144    0.6949   -0.1883 C.ar      1 <0>        -0.1949
     18 C15         0.9292   -0.3989   -0.1103 C.ar      1 <0>         0.2088
     19 N1          1.4538   -1.6724   -0.2624 N.pl3     1 <0>        -0.6181
     20 C16         3.2489    0.4655   -0.4317 C.2       1 <0>         0.4959
     21 O1          3.6896   -0.6670   -0.4442 O.co2     1 <0>        -0.6251
     22 H4         -0.3315   -0.3363   -3.2047 H         1 <0>         0.0360
     23 H5         -0.9875   -0.3587   -1.5502 H         1 <0>         0.1198
     24 H6          0.7669   -0.2077   -1.8100 H         1 <0>         0.0847
     25 H7         -0.9828   -2.6421   -2.3593 H         1 <0>         0.1006
     26 H8          1.0319   -3.7197   -3.2389 H         1 <0>         0.0511
     27 H9          0.7053   -2.2423   -4.1764 H         1 <0>         0.0511
     28 H10         1.9862   -2.2471   -2.9404 H         1 <0>         0.0548
     29 H11        -1.4119   -4.3518   -1.0279 H         1 <0>         0.0690
     30 H12        -2.5448   -3.8922    0.2835 H         1 <0>         0.0730
     31 H13        -3.1280   -2.8286   -2.2556 H         1 <0>         0.1230
     32 H14        -2.6809   -0.4362   -1.5279 H         1 <0>         0.1242
     33 H15        -1.9297    1.3011    0.4349 H         1 <0>         0.1095
     34 H16        -0.3896    3.2052    0.3102 H         1 <0>         0.1107
     35 H17         2.0076    2.8358   -0.0940 H         1 <0>         0.1262
     36 H18         2.2714   -1.6584   -0.8535 H         1 <0>         0.3905
     37 O2          4.0727    1.5115   -0.6404 O.co2     1 <0>        -0.7531
@<TRIPOS>BOND
     1    1    2 1
     2    1   22 1
     3    1   23 1
     4    1   24 1
     5    2    3 1
     6    2    4 1
     7    2   25 1
     8    3   26 1
     9    3   27 1
    10    3   28 1
    11    4    5 1
    12    4   19 1
    13    4    6 1
    14    6    7 1
    15    6   11 1
    16    6    8 1
    17    8    9 1
    18    8   29 1
    19    8   30 1
    20    9   10 2
    21    9   31 1
    22   10   11 1
    23   10   32 1
    24   11   12 1
    25   11   13 1
    26   13   18 ar
    27   13   14 ar
    28   14   15 ar
    29   14   33 1
    30   15   16 ar
    31   15   34 1
    32   16   17 ar
    33   16   35 1
    34   17   18 ar
    35   17   20 1
    36   18   19 1
    37   19   36 1
    38   20   21 2
    39   20   37 1
@<TRIPOS>MOLECULE
ZINC20581593
   23    24     0     0     0
SMALL
USER_CHARGES
5-[[2-(difluoromethylsulfanyl)phenyl]amino]-1,3,4-thiadiazole-2-thiol
@<TRIPOS>ATOM
      1 C1         -0.0004    0.0757    0.7475 C.ar      1 <0>        -0.0736
      2 C2          1.1848   -0.6319    0.6651 C.ar      1 <0>        -0.1459
      3 C3          2.3656    0.0216    0.3654 C.ar      1 <0>        -0.0893
      4 C4          2.3638    1.3916    0.1464 C.ar      1 <0>        -0.1565
      5 C5          1.1676    2.1055    0.2296 C.ar      1 <0>         0.2299
      6 C6         -0.0120    1.4412    0.5307 C.ar      1 <0>        -0.1549
      7 N1          1.1582    3.4880    0.0092 N.pl3     1 <0>        -0.6218
      8 C7         -0.0501    4.1693   -0.0810 C.2       1 <0>         0.2910
      9 N2         -1.2794    3.6919   -0.0965 N.2       1 <0>        -0.3513
     10 N3         -2.3475    4.5540   -0.1894 N.2       1 <0>        -0.3518
     11 C8         -2.1364    5.8537   -0.2731 C.2       1 <0>         0.3017
     12 S1         -0.3525    5.9247   -0.2147 S.3       1 <0>        -0.1553
     13 S2         -3.3023    7.1680   -0.4070 S.3       1 <0>        -0.6824
     14 S3          3.8670    2.2274   -0.2363 S.3       1 <0>        -0.0785
     15 C9          5.1146    0.9106   -0.2319 C.3       1 <0>         0.2660
     16 F1          5.1528    0.3086    1.0303 F         1 <0>        -0.1943
     17 F2          4.7843   -0.0479   -1.1960 F         1 <0>        -0.1936
     18 H1         -0.9200   -0.4400    0.9815 H         1 <0>         0.1294
     19 H2          1.1880   -1.6984    0.8350 H         1 <0>         0.1246
     20 H3          3.2893   -0.5342    0.3016 H         1 <0>         0.1239
     21 H4         -0.9403    1.9898    0.5916 H         1 <0>         0.1783
     22 H5          2.1070    4.0352   -0.0926 H         1 <0>         0.4449
     23 H6          6.1823    1.0796   -0.4356 H         1 <0>         0.1594
@<TRIPOS>BOND
     1    1    6 ar
     2    1    2 ar
     3    1   18 1
     4    2    3 ar
     5    2   19 1
     6    3    4 ar
     7    3   20 1
     8    4    5 ar
     9    4   14 1
    10    5    6 ar
    11    5    7 1
    12    6   21 1
    13    7    8 1
    14    7   22 1
    15    8   12 1
    16    8    9 2
    17    9   10 1
    18   10   11 2
    19   11   12 1
    20   11   13 1
    21   14   15 1
    22   15   16 1
    23   15   17 1
    24   15   23 1
@<TRIPOS>MOLECULE
ZINC37120546
   29    30     0     0     0
SMALL
USER_CHARGES

@<TRIPOS>ATOM
      1 C1         -0.0184    1.5028    0.0103 C.3       1 <0>        -0.0972
      2 C2          0.0021   -0.0041    0.0020 C.ar      1 <0>        -0.1780
      3 C3          0.0057   -0.6797   -1.1852 C.ar      1 <0>        -0.0388
      4 C4          0.0246   -2.0791   -1.1918 C.ar      1 <0>        -0.1815
      5 C5          0.0399   -2.7812    0.0192 C.ar      1 <0>        -0.0437
      6 C6          0.0362   -2.0989    1.2021 C.ar      1 <0>        -0.2091
      7 C7          0.0230   -0.7059    1.2047 C.ar      1 <0>         0.2024
      8 N1          0.0250   -0.0153    2.4099 N.pl3     1 <0>        -0.7483
      9 C8          0.0471   -0.7518    3.6762 C.3       1 <0>         0.2113
     10 C9          0.0447    0.2237    4.8248 C.2       1 <0>        -0.1476
     11 C10        -1.0092    0.7574    5.4886 C.2       1 <0>        -0.1358
     12 C11        -0.7714    1.6432    6.5234 C.2       1 <0>        -0.1380
     13 C12         0.5105    1.9512    6.8430 C.2       1 <0>        -0.1234
     14 S1          1.4297    0.9697    5.6687 S.3       1 <0>         0.1052
     15 Cl1         1.1033    3.0177    8.0779 Cl        1 <0>         0.0134
     16 C13         0.0281   -2.8105   -2.4685 C.2       1 <0>         0.5223
     17 O1          0.0143   -2.1954   -3.5261 O.co2     1 <0>        -0.6950
     18 O2          0.0447   -4.0339   -2.4726 O.co2     1 <0>        -0.6950
     19 H1          1.0042    1.8801    0.0026 H         1 <0>         0.0584
     20 H2         -0.5455    1.8639   -0.8728 H         1 <0>         0.0638
     21 H3         -0.5286    1.8543    0.9071 H         1 <0>         0.0498
     22 H4         -0.0065   -0.1346   -2.1175 H         1 <0>         0.1245
     23 H5          0.0542   -3.8611    0.0179 H         1 <0>         0.1240
     24 H6          0.0480   -2.6399    2.1368 H         1 <0>         0.1117
     25 H7          0.0119    0.9546    2.4132 H         1 <0>         0.3973
     26 H8         -0.8337   -1.3907    3.7403 H         1 <0>         0.0848
     27 H9          0.9460   -1.3665    3.7234 H         1 <0>         0.0754
     28 H10        -2.0201    0.4951    5.2133 H         1 <0>         0.1446
     29 H11        -1.5934    2.0832    7.0686 H         1 <0>         0.1422
@<TRIPOS>BOND
     1    1    2 1
     2    1   19 1
     3    1   20 1
     4    1   21 1
     5    2    7 ar
     6    2    3 ar
     7    3    4 ar
     8    3   22 1
     9    4    5 ar
    10    4   16 1
    11    5    6 ar
    12    5   23 1
    13    6    7 ar
    14    6   24 1
    15    7    8 1
    16    8    9 1
    17    8   25 1
    18    9   10 1
    19    9   26 1
    20    9   27 1
    21   10   14 1
    22   10   11 2
    23   11   12 1
    24   11   28 1
    25   12   13 2
    26   12   29 1
    27   13   14 1
    28   13   15 1
    29   16   17 2
    30   16   18 1
@<TRIPOS>MOLECULE
ZINC41679127
   26    27     0     0     0
SMALL
USER_CHARGES

@<TRIPOS>ATOM
      1 C1         -0.0167    1.3786    0.0096 C.ar      1 <0>        -0.1963
      2 C2          1.1695    2.0894    0.0021 C.ar      1 <0>        -0.0750
      3 C3          2.3774    1.4200   -0.0130 C.ar      1 <0>        -0.2045
      4 C4          2.3998    0.0311   -0.0206 C.ar      1 <0>         0.2377
      5 C5          1.2064   -0.6798   -0.0130 C.ar      1 <0>        -0.1964
      6 C6          0.0021   -0.0041    0.0020 C.ar      1 <0>        -0.0711
      7 N1          3.6196   -0.6492   -0.0363 N.pl3     1 <0>        -0.7150
      8 C7          3.6414   -2.1140   -0.0443 C.3       1 <0>         0.1529
      9 H1          2.8110   -2.4930    0.5514 H         1 <0>         0.0997
     10 C8          4.9423   -2.6002    0.5407 C.2       1 <0>        -0.0788
     11 C9          5.1663   -3.6497    1.3683 C.2       1 <0>        -0.1791
     12 C10         6.4586   -3.9124    1.7836 C.2       1 <0>        -0.0926
     13 C11         7.4637   -3.1116    1.3501 C.2       1 <0>        -0.2054
     14 S1          6.5889   -1.9478    0.3169 S.3       1 <0>         0.1072
     15 Br1         9.3128   -3.2075    1.7343 Br        1 <0>         0.0210
     16 C12         3.5111   -2.6105   -1.4612 C.2       1 <0>         0.4940
     17 O1          3.9413   -1.9401   -2.3842 O.co2     1 <0>        -0.6660
     18 O2          2.9753   -3.6828   -1.6845 O.co2     1 <0>        -0.6823
     19 H2         -0.9598    1.9046    0.0260 H         1 <0>         0.1107
     20 H3          1.1513    3.1692    0.0077 H         1 <0>         0.1139
     21 H4          3.3034    1.9757   -0.0192 H         1 <0>         0.1147
     22 H5          1.2204   -1.7597   -0.0193 H         1 <0>         0.1225
     23 H6         -0.9261   -0.5561    0.0079 H         1 <0>         0.1154
     24 H7          4.4523   -0.1517   -0.0419 H         1 <0>         0.3941
     25 H8          4.3474   -4.2715    1.6988 H         1 <0>         0.1417
     26 H9          6.6645   -4.7424    2.4434 H         1 <0>         0.1370
@<TRIPOS>BOND
     1    1    6 ar
     2    1    2 ar
     3    1   19 1
     4    2    3 ar
     5    2   20 1
     6    3    4 ar
     7    3   21 1
     8    4    5 ar
     9    4    7 1
    10    5    6 ar
    11    5   22 1
    12    6   23 1
    13    7    8 1
    14    7   24 1
    15    8    9 1
    16    8   10 1
    17    8   16 1
    18   10   14 1
    19   10   11 2
    20   11   12 1
    21   11   25 1
    22   12   13 2
    23   12   26 1
    24   13   14 1
    25   13   15 1
    26   16   17 2
    27   16   18 1
@<TRIPOS>MOLECULE
ZINC61327434
   33    35     0     0     0
SMALL
USER_CHARGES

@<TRIPOS>ATOM
      1 C1         -0.0169    1.3934    0.0097 C.ar      1 <0>        -0.1115
      2 C2          1.1678    2.0992    0.0022 C.ar      1 <0>        -0.1259
      3 C3          2.3789    1.4278   -0.0129 C.ar      1 <0>         0.0066
      4 C4          2.4082    0.0349   -0.0207 C.ar      1 <0>         0.1680
      5 C5          1.2244   -0.6820   -0.0132 C.ar      1 <0>        -0.1354
      6 C6          0.0021   -0.0041    0.0020 C.ar      1 <0>        -0.0963
      7 C7         -1.2629   -0.7607    0.0100 C.2       1 <0>         0.5199
      8 O1         -2.3314   -0.1655    0.0233 O.co2     1 <0>        -0.6843
      9 O2         -1.2441   -1.9836    0.0032 O.co2     1 <0>        -0.6834
     10 N1          3.6339   -0.6388   -0.0364 N.pl3     1 <0>        -0.7408
     11 C8          3.6646   -2.1035   -0.0445 C.3       1 <0>         0.2134
     12 H1          2.8255   -2.4832   -0.6273 H         1 <0>         0.0946
     13 C9          4.9776   -2.5851   -0.6628 C.3       1 <0>        -0.1233
     14 C10         5.1025   -4.1038   -0.5112 C.3       1 <0>        -0.1099
     15 C11         5.3408   -4.4331    0.9704 C.3       1 <0>        -0.0375
     16 C12         4.3491   -3.6696    1.7865 C.2       1 <0>        -0.1497
     17 C13         3.5711   -2.6249    1.3865 C.2       1 <0>        -0.1269
     18 C14         2.7138   -2.0806    2.3425 C.2       1 <0>        -0.1324
     19 C15         2.6832   -2.5917    3.5945 C.2       1 <0>        -0.1712
     20 S1          3.9022   -3.9011    3.4863 S.3       1 <0>         0.0085
     21 F1          3.5356    2.1257   -0.0207 F         1 <0>        -0.1546
     22 H2         -0.9593    1.9206    0.0260 H         1 <0>         0.1332
     23 H3          1.1511    3.1790    0.0077 H         1 <0>         0.1259
     24 H4          1.2450   -1.7618   -0.0195 H         1 <0>         0.1362
     25 H5          4.4636   -0.1363   -0.0419 H         1 <0>         0.3977
     26 H6          4.9961   -2.3245   -1.7211 H         1 <0>         0.0752
     27 H7          5.8140   -2.1013   -0.1583 H         1 <0>         0.0688
     28 H8          4.1829   -4.5818   -0.8487 H         1 <0>         0.0739
     29 H9          5.9431   -4.4626   -1.1052 H         1 <0>         0.0768
     30 H10         5.2067   -5.5022    1.1352 H         1 <0>         0.0808
     31 H11         6.3520   -4.1412    1.2535 H         1 <0>         0.0805
     32 H12         2.0740   -1.2501    2.0831 H         1 <0>         0.1391
     33 H13         2.0834   -2.2873    4.4394 H         1 <0>         0.1839
@<TRIPOS>BOND
     1    1    6 ar
     2    1    2 ar
     3    1   22 1
     4    2    3 ar
     5    2   23 1
     6    3    4 ar
     7    3   21 1
     8    4    5 ar
     9    4   10 1
    10    5    6 ar
    11    5   24 1
    12    6    7 1
    13    7    8 2
    14    7    9 1
    15   10   11 1
    16   10   25 1
    17   11   12 1
    18   11   17 1
    19   11   13 1
    20   13   14 1
    21   13   26 1
    22   13   27 1
    23   14   15 1
    24   14   28 1
    25   14   29 1
    26   15   16 1
    27   15   30 1
    28   15   31 1
    29   16   20 1
    30   16   17 2
    31   17   18 1
    32   18   19 2
    33   18   32 1
    34   19   20 1
    35   19   33 1
@<TRIPOS>MOLECULE
ZINC20273229
   41    43     0     0     0
SMALL
USER_CHARGES
(2R,3S)-1-cyclohexyl-2-(2-furyl)-6-oxo-piperidine-3-carboxylic acid
@<TRIPOS>ATOM
      1 C1         -0.0126    1.0758    0.0080 C.2       1 <0>        -0.2170
      2 C2         -1.1592    1.9029    0.0172 C.2       1 <0>        -0.1329
      3 C3         -0.7221    3.1750    0.0260 C.2       1 <0>        -0.0110
      4 O1          0.6208    3.1624    0.0131 O.3       1 <0>        -0.1745
      5 C4          1.0566    1.8921    0.0021 C.2       1 <0>        -0.0665
      6 C5         -1.5918    4.4056    0.0402 C.3       1 <0>         0.2500
      7 H1         -2.5954    4.1718   -0.3447 H         1 <0>         0.1043
      8 C6         -1.6742    4.9499    1.4668 C.3       1 <0>        -0.1420
      9 H2         -2.4480    5.7291    1.5301 H         1 <0>         0.0863
     10 C7         -0.3112    5.5210    1.8588 C.3       1 <0>        -0.1045
     11 C8         -0.0466    6.7643    1.0060 C.3       1 <0>        -0.1353
     12 C9         -0.3109    6.4577   -0.4402 C.2       1 <0>         0.5254
     13 O2          0.1480    7.2044   -1.2784 O.2       1 <0>        -0.5594
     14 N1         -1.0228    5.4079   -0.8520 N.am      1 <0>        -0.5969
     15 C10        -1.2474    5.2527   -2.2913 C.3       1 <0>         0.1501
     16 C11         0.0990    5.1256   -3.0068 C.3       1 <0>        -0.1350
     17 C12        -0.1357    4.9635   -4.5100 C.3       1 <0>        -0.1132
     18 C13        -0.8836    6.1866   -5.0443 C.3       1 <0>        -0.1186
     19 C14        -2.2300    6.3138   -4.3288 C.3       1 <0>        -0.1127
     20 C15        -1.9954    6.4759   -2.8256 C.3       1 <0>        -0.1367
     21 C16        -2.0394    3.8353    2.4130 C.2       1 <0>         0.4701
     22 O3         -2.2163    2.7174    1.9900 O.co2     1 <0>        -0.6197
     23 O4         -2.1682    4.0843    3.7257 O.co2     1 <0>        -0.7635
     24 H3          0.0021   -0.0041    0.0020 H         1 <0>         0.1373
     25 H4         -2.1886    1.5759    0.0196 H         1 <0>         0.1440
     26 H5          2.0902    1.5790   -0.0089 H         1 <0>         0.1899
     27 H6         -0.3195    5.7903    2.9253 H         1 <0>         0.0861
     28 H7          0.4685    4.7666    1.6772 H         1 <0>         0.0687
     29 H8         -0.7095    7.5797    1.3311 H         1 <0>         0.0964
     30 H9          1.0020    7.0745    1.1254 H         1 <0>         0.0951
     31 H10        -1.8471    4.3409   -2.4294 H         1 <0>         0.0795
     32 H11         0.6979    6.0301   -2.8246 H         1 <0>         0.0926
     33 H12         0.6368    4.2463   -2.6227 H         1 <0>         0.0588
     34 H13         0.8323    4.8720   -5.0245 H         1 <0>         0.0595
     35 H14        -0.7347    4.0590   -4.6922 H         1 <0>         0.0576
     36 H15        -0.2846    7.0911   -4.8621 H         1 <0>         0.0635
     37 H16        -1.0522    6.0701   -6.1250 H         1 <0>         0.0566
     38 H17        -2.7677    7.1932   -4.7129 H         1 <0>         0.0606
     39 H18        -2.8290    5.4093   -4.5110 H         1 <0>         0.0587
     40 H19        -2.9634    6.5673   -2.3112 H         1 <0>         0.0579
     41 H20        -1.3965    7.3804   -2.6434 H         1 <0>         0.0905
@<TRIPOS>BOND
     1    1    5 2
     2    1    2 1
     3    1   24 1
     4    2    3 2
     5    2   25 1
     6    3    4 1
     7    3    6 1
     8    4    5 1
     9    5   26 1
    10    6    7 1
    11    6   14 1
    12    6    8 1
    13    8    9 1
    14    8   10 1
    15    8   21 1
    16   10   11 1
    17   10   27 1
    18   10   28 1
    19   11   12 1
    20   11   29 1
    21   11   30 1
    22   12   13 2
    23   12   14 am
    24   14   15 1
    25   15   20 1
    26   15   16 1
    27   15   31 1
    28   16   17 1
    29   16   32 1
    30   16   33 1
    31   17   18 1
    32   17   34 1
    33   17   35 1
    34   18   19 1
    35   18   36 1
    36   18   37 1
    37   19   20 1
    38   19   38 1
    39   19   39 1
    40   20   40 1
    41   20   41 1
    42   21   22 2
    43   21   23 1
@<TRIPOS>MOLECULE
ZINC06530783
   37    39     0     0     0
SMALL
USER_CHARGES

@<TRIPOS>ATOM
      1 C1         -0.0187    1.5258    0.0104 C.3       1 <0>        -0.1385
      2 C2          0.0021   -0.0041    0.0020 C.3       1 <0>        -0.0509
      3 C3          0.7281   -0.4996   -1.2517 C.3       1 <0>        -0.1450
      4 C4          0.7925   -2.0043   -1.2290 C.2       1 <0>         0.4026
      5 C5          0.8289   -2.6960   -0.0173 C.2       1 <0>        -0.4996
      6 C6          0.8059   -2.0175    1.2021 C.2       1 <0>         0.3966
      7 O1          0.8380   -2.6494    2.2466 O.2       1 <0>        -0.5184
      8 C7          0.7423   -0.5131    1.2419 C.3       1 <0>        -0.1496
      9 C8          0.8919   -4.1634   -0.0256 C.2       1 <0>         0.2907
     10 N1          0.9264   -4.8213    1.1006 N.2       1 <0>        -0.5473
     11 C9          0.9852   -6.1896    1.0928 C.ar      1 <0>         0.1656
     12 C10         0.1609   -6.9208    0.2351 C.ar      1 <0>        -0.1828
     13 C11         0.2219   -8.2989    0.2290 C.ar      1 <0>        -0.0710
     14 C12         1.0997   -8.9627    1.0731 C.ar      1 <0>        -0.0293
     15 C13         1.9253   -8.2386    1.9319 C.ar      1 <0>         0.0511
     16 C14         1.8735   -6.8567    1.9383 C.ar      1 <0>        -0.1218
     17 O2          2.6863   -9.1169    2.6486 O.3       1 <0>        -0.3147
     18 C15         2.0300  -10.3915    2.5158 C.3       1 <0>         0.2150
     19 O3          1.3451  -10.2941    1.2532 O.3       1 <0>        -0.3166
     20 O4          0.8126   -2.6249   -2.2805 O.3       1 <0>        -0.5741
     21 C16        -1.4327   -0.5354    0.0084 C.3       1 <0>        -0.1437
     22 H1          1.0039    1.9031    0.0027 H         1 <0>         0.0520
     23 H2         -0.5459    1.8868   -0.8726 H         1 <0>         0.0517
     24 H3         -0.5289    1.8773    0.9072 H         1 <0>         0.0521
     25 H4          0.1863   -0.1720   -2.1390 H         1 <0>         0.0726
     26 H5          1.7390   -0.0925   -1.2713 H         1 <0>         0.0783
     27 H6          1.7534   -0.1062    1.2544 H         1 <0>         0.0750
     28 H7          0.2108   -0.1952    2.1388 H         1 <0>         0.0705
     29 H8          0.9098   -4.6978   -0.9640 H         1 <0>         0.0783
     30 H9         -0.5245   -6.4076   -0.4231 H         1 <0>         0.1296
     31 H10        -0.4164   -8.8628   -0.4351 H         1 <0>         0.1250
     32 H11         2.5158   -6.2945    2.5999 H         1 <0>         0.1325
     33 H12         2.7622  -11.1987    2.4930 H         1 <0>         0.1228
     34 H13         1.3179  -10.5420    3.3272 H         1 <0>         0.0755
     35 H14        -1.9576   -0.1749   -0.8762 H         1 <0>         0.0480
     36 H15        -1.4166   -1.6253    0.0024 H         1 <0>         0.0692
     37 H16        -1.9461   -0.1846    0.9037 H         1 <0>         0.0486
@<TRIPOS>BOND
     1    1    2 1
     2    1   22 1
     3    1   23 1
     4    1   24 1
     5    2    8 1
     6    2    3 1
     7    2   21 1
     8    3    4 1
     9    3   25 1
    10    3   26 1
    11    4    5 2
    12    4   20 1
    13    5    6 1
    14    5    9 1
    15    6    7 2
    16    6    8 1
    17    8   27 1
    18    8   28 1
    19    9   10 2
    20    9   29 1
    21   10   11 1
    22   11   16 ar
    23   11   12 ar
    24   12   13 ar
    25   12   30 1
    26   13   14 ar
    27   13   31 1
    28   14   19 1
    29   14   15 ar
    30   15   16 ar
    31   15   17 1
    32   16   32 1
    33   17   18 1
    34   18   19 1
    35   18   33 1
    36   18   34 1
    37   21   35 1
    38   21   36 1
    39   21   37 1
@<TRIPOS>MOLECULE
ZINC44020199
   37    39     0     0     0
SMALL
USER_CHARGES

@<TRIPOS>ATOM
      1 C1         -1.1421    0.9275   -0.4072 C.3       1 <0>        -0.1564
      2 C2          0.0009   -0.0040    0.0014 C.3       1 <0>         0.1637
      3 C3          1.0485    0.7880    0.7862 C.3       1 <0>        -0.1578
      4 C4         -0.5485   -1.1312    0.8780 C.3       1 <0>        -0.1226
      5 N1          0.6181   -0.5749   -1.1984 N.am      1 <0>        -0.5467
      6 C5          0.6365   -1.9128   -1.3745 C.2       1 <0>         0.5513
      7 O1          0.1425   -2.6559   -0.5415 O.2       1 <0>        -0.5821
      8 C6          1.2325   -2.4335   -2.5305 C.2       1 <0>        -0.4534
      9 C7          1.7803   -1.5542   -3.4492 C.2       1 <0>         0.4515
     10 N2          1.7309   -0.2369   -3.2183 N.2       1 <0>        -0.6376
     11 C8          1.1657    0.2438   -2.1341 C.2       1 <0>         0.6358
     12 O2          1.1328    1.5787   -1.9435 O.3       1 <0>        -0.6502
     13 N3          2.3787   -2.0371   -4.6049 N.pl3     1 <0>        -0.4163
     14 C9          2.3884   -3.3515   -4.9988 C.2       1 <0>         0.0642
     15 C10         3.0496   -3.4757   -6.1592 C.2       1 <0>        -0.2003
     16 C11         3.5017   -2.1351   -6.5434 C.ar      1 <0>        -0.1103
     17 C12         3.0486   -1.2665   -5.5342 C.ar      1 <0>         0.1086
     18 C13         3.3262    0.0920   -5.6288 C.ar      1 <0>        -0.0925
     19 C14         4.0370    0.5721   -6.7081 C.ar      1 <0>        -0.1186
     20 C15         4.4786   -0.2881   -7.7031 C.ar      1 <0>        -0.1427
     21 C16         4.2235   -1.6290   -7.6251 C.ar      1 <0>        -0.0882
     22 H1         -0.7366    1.7891   -0.9376 H         1 <0>         0.0867
     23 H2         -1.8324    0.3916   -1.0586 H         1 <0>         0.0453
     24 H3         -1.6715    1.2655    0.4837 H         1 <0>         0.0557
     25 H4          0.5893    1.2128    1.6788 H         1 <0>         0.0568
     26 H5          1.8628    0.1244    1.0772 H         1 <0>         0.0451
     27 H6          1.4399    1.5911    0.1617 H         1 <0>         0.0868
     28 H7         -1.2949   -1.6955    0.3188 H         1 <0>         0.0687
     29 H8          0.2658   -1.7948    1.1690 H         1 <0>         0.0700
     30 H9         -1.0077   -0.7064    1.7706 H         1 <0>         0.0309
     31 H10         1.2642   -3.4994   -2.7016 H         1 <0>         0.1285
     32 H11         1.9315   -4.1652   -4.4552 H         1 <0>         0.1722
     33 H12         3.2173   -4.3911   -6.7073 H         1 <0>         0.1495
     34 H13         2.9859    0.7694   -4.8596 H         1 <0>         0.1493
     35 H14         4.2518    1.6280   -6.7800 H         1 <0>         0.1215
     36 H15         5.0337    0.1037   -8.5426 H         1 <0>         0.1165
     37 H16         4.5696   -2.2926   -8.4036 H         1 <0>         0.1171
@<TRIPOS>BOND
     1    1    2 1
     2    1   22 1
     3    1   23 1
     4    1   24 1
     5    2    3 1
     6    2    4 1
     7    2    5 1
     8    3   25 1
     9    3   26 1
    10    3   27 1
    11    4   28 1
    12    4   29 1
    13    4   30 1
    14    5   11 1
    15    5    6 am
    16    6    7 2
    17    6    8 1
    18    8    9 2
    19    8   31 1
    20    9   10 1
    21    9   13 1
    22   10   11 2
    23   11   12 1
    24   13   17 1
    25   13   14 1
    26   14   15 2
    27   14   32 1
    28   15   16 1
    29   15   33 1
    30   16   21 ar
    31   16   17 ar
    32   17   18 ar
    33   18   19 ar
    34   18   34 1
    35   19   20 ar
    36   19   35 1
    37   20   21 ar
    38   20   36 1
    39   21   37 1
@<TRIPOS>MOLECULE
ZINC50600850
   34    36     0     0     0
SMALL
USER_CHARGES

@<TRIPOS>ATOM
      1 C1         -0.0167    1.3781    0.0096 C.ar      1 <0>        -0.1245
      2 C2          1.1709    2.0855    0.0021 C.ar      1 <0>        -0.1192
      3 C3          2.3773    1.4107   -0.0130 C.ar      1 <0>        -0.1135
      4 C4          2.3960    0.0285   -0.0201 C.ar      1 <0>        -0.0681
      5 C5          1.2084   -0.6789   -0.0117 C.ar      1 <0>        -0.1126
      6 C6          0.0021   -0.0041    0.0020 C.ar      1 <0>        -0.1177
      7 C7          3.7112   -0.7071   -0.0376 C.3       1 <0>        -0.0655
      8 H1          4.5473   -0.0080   -0.0553 H         1 <0>         0.0926
      9 C8          3.7827   -1.6902   -1.2359 C.3       1 <0>        -0.1208
     10 C9          4.7688   -2.7686   -0.7398 C.3       1 <0>         0.1175
     11 N1          4.7727   -2.7139    0.7294 N.pl3     1 <0>        -0.6137
     12 C10         3.8221   -1.6749    1.1669 C.3       1 <0>         0.1305
     13 C11         5.5409   -3.5066    1.5638 C.ar      1 <0>         0.3427
     14 C12         6.4859   -4.3805    1.0228 C.ar      1 <0>        -0.1994
     15 C13         7.2307   -5.1530    1.8944 C.ar      1 <0>        -0.0428
     16 C14         6.9912   -5.0114    3.2685 C.ar      1 <0>        -0.0271
     17 N2          6.0702   -4.1531    3.6931 N.ar      1 <0>        -0.1652
     18 N3          5.3838   -3.4329    2.8820 N.ar      1 <0>        -0.3209
     19 C15         7.7593   -5.8135    4.2400 C.2       1 <0>         0.5413
     20 O1          8.6063   -6.6033    3.8471 O.co2     1 <0>        -0.6837
     21 O2          7.5488   -5.6885    5.4383 O.co2     1 <0>        -0.6595
     22 H2         -0.9591    1.9053    0.0259 H         1 <0>         0.1198
     23 H3          1.1563    3.1654    0.0076 H         1 <0>         0.1210
     24 H4          3.3051    1.9634   -0.0196 H         1 <0>         0.1219
     25 H5          1.2231   -1.7588   -0.0176 H         1 <0>         0.1228
     26 H6         -0.9258   -0.5567    0.0082 H         1 <0>         0.1213
     27 H7          2.8038   -2.1256   -1.4364 H         1 <0>         0.0798
     28 H8          4.1723   -1.1898   -2.1224 H         1 <0>         0.0841
     29 H9          4.4402   -3.7529   -1.0733 H         1 <0>         0.0643
     30 H10         5.7685   -2.5604   -1.1212 H         1 <0>         0.0641
     31 H11         4.2082   -1.1503    2.0408 H         1 <0>         0.0801
     32 H12         2.8512   -2.1184    1.3879 H         1 <0>         0.0643
     33 H13         6.6305   -4.4511   -0.0451 H         1 <0>         0.1346
     34 H14         7.9744   -5.8451    1.5278 H         1 <0>         0.1518
@<TRIPOS>BOND
     1    1    6 ar
     2    1    2 ar
     3    1   22 1
     4    2    3 ar
     5    2   23 1
     6    3    4 ar
     7    3   24 1
     8    4    5 ar
     9    4    7 1
    10    5    6 ar
    11    5   25 1
    12    6   26 1
    13    7    8 1
    14    7   12 1
    15    7    9 1
    16    9   10 1
    17    9   27 1
    18    9   28 1
    19   10   11 1
    20   10   29 1
    21   10   30 1
    22   11   12 1
    23   11   13 1
    24   12   31 1
    25   12   32 1
    26   13   18 ar
    27   13   14 ar
    28   14   15 ar
    29   14   33 1
    30   15   16 ar
    31   15   34 1
    32   16   17 ar
    33   16   19 1
    34   17   18 ar
    35   19   20 2
    36   19   21 1
@<TRIPOS>MOLECULE
ZINC62846826
   48    49     0     0     0
SMALL
USER_CHARGES

@<TRIPOS>ATOM
      1 C1          2.8451   -4.4112   -3.5589 C.3       1 <0>        -0.1608
      2 C2          2.0908   -3.9125   -2.3248 C.3       1 <0>        -0.1146
      3 C3          1.1000   -2.8226   -2.7385 C.3       1 <0>        -0.1088
      4 H1          0.4459   -3.2040   -3.5226 H         1 <0>         0.0777
      5 C4          0.2594   -2.4101   -1.5279 C.3       1 <0>        -0.1111
      6 C5         -0.7542   -1.3433   -1.9481 C.3       1 <0>        -0.1374
      7 C6         -0.0068   -0.1084   -2.4611 C.3       1 <0>         0.1301
      8 N1          0.9122   -0.5221   -3.5303 N.am      1 <0>        -0.6283
      9 C7          1.8684   -1.6047   -3.2611 C.3       1 <0>         0.0798
     10 C8          0.8786    0.0798   -4.7357 C.2       1 <0>         0.7143
     11 O1          0.2454    1.1071   -4.8848 O.2       1 <0>        -0.5895
     12 N2          1.5468   -0.4569   -5.7758 N.am      1 <0>        -0.6307
     13 C9          1.8120   -1.9010   -5.8302 C.3       1 <0>         0.0985
     14 C10         1.2957   -2.4471   -7.1652 C.3       1 <0>        -0.1030
     15 C11         1.9191   -1.6499   -8.3132 C.3       1 <0>        -0.1244
     16 C12         1.5055   -0.1808   -8.1999 C.3       1 <0>        -0.1034
     17 C13         2.0188    0.3901   -6.8797 C.3       1 <0>         0.1309
     18 C14         3.4436   -1.7573   -8.2395 C.3       1 <0>        -0.0963
     19 C15         4.0670   -0.9604   -9.3872 C.3       1 <0>        -0.1479
     20 C16         1.4399   -2.2064   -9.6291 C.2       1 <0>         0.5060
     21 O2          1.3340   -1.4742  -10.5983 O.co2     1 <0>        -0.6937
     22 O3          1.1580   -3.3887   -9.7246 O.co2     1 <0>        -0.7007
     23 H2          2.1352   -4.8195   -4.2783 H         1 <0>         0.0600
     24 H3          3.3865   -3.5816   -4.0136 H         1 <0>         0.0564
     25 H4          3.5509   -5.1877   -3.2642 H         1 <0>         0.0553
     26 H5          1.5493   -4.7421   -1.8701 H         1 <0>         0.0645
     27 H6          2.8007   -3.5042   -1.6054 H         1 <0>         0.0619
     28 H7         -0.2694   -3.2805   -1.1395 H         1 <0>         0.0637
     29 H8          0.9116   -2.0063   -0.7535 H         1 <0>         0.0626
     30 H9         -1.3908   -1.7381   -2.7399 H         1 <0>         0.0663
     31 H10        -1.3681   -1.0670   -1.0909 H         1 <0>         0.0733
     32 H11        -0.7218    0.6148   -2.8533 H         1 <0>         0.0896
     33 H12         0.5601    0.3406   -1.6455 H         1 <0>         0.0616
     34 H13         2.5885   -1.2776   -2.5111 H         1 <0>         0.0611
     35 H14         2.3902   -1.8691   -4.1809 H         1 <0>         0.1167
     36 H15         2.8846   -2.0788   -5.7530 H         1 <0>         0.0650
     37 H16         1.2970   -2.3983   -5.0083 H         1 <0>         0.0883
     38 H17         1.5716   -3.4974   -7.2597 H         1 <0>         0.0774
     39 H18         0.2106   -2.3507   -7.2025 H         1 <0>         0.0559
     40 H19         1.9307    0.3820   -9.0309 H         1 <0>         0.0811
     41 H20         0.4184   -0.1058   -8.2275 H         1 <0>         0.0556
     42 H21         1.6402    1.4040   -6.7499 H         1 <0>         0.0799
     43 H22         3.1086    0.4033   -6.8899 H         1 <0>         0.0605
     44 H23         3.7905   -1.3555   -7.2876 H         1 <0>         0.0473
     45 H24         3.7384   -2.8035   -8.3214 H         1 <0>         0.0541
     46 H25         3.7201   -1.3623  -10.3391 H         1 <0>         0.0679
     47 H26         3.7722    0.0857   -9.3053 H         1 <0>         0.0513
     48 H27         5.1531   -1.0370   -9.3347 H         1 <0>         0.0358
@<TRIPOS>BOND
     1    1    2 1
     2    1   23 1
     3    1   24 1
     4    1   25 1
     5    2    3 1
     6    2   26 1
     7    2   27 1
     8    3    4 1
     9    3    9 1
    10    3    5 1
    11    5    6 1
    12    5   28 1
    13    5   29 1
    14    6    7 1
    15    6   30 1
    16    6   31 1
    17    7    8 1
    18    7   32 1
    19    7   33 1
    20    8    9 1
    21    8   10 am
    22    9   34 1
    23    9   35 1
    24   10   11 2
    25   10   12 am
    26   12   17 1
    27   12   13 1
    28   13   14 1
    29   13   36 1
    30   13   37 1
    31   14   15 1
    32   14   38 1
    33   14   39 1
    34   15   16 1
    35   15   18 1
    36   15   20 1
    37   16   17 1
    38   16   40 1
    39   16   41 1
    40   17   42 1
    41   17   43 1
    42   18   19 1
    43   18   44 1
    44   18   45 1
    45   19   46 1
    46   19   47 1
    47   19   48 1
    48   20   21 2
    49   20   22 1
@<TRIPOS>MOLECULE
ZINC13225673
   48    51     0     0     0
SMALL
USER_CHARGES
(2S,3aS,7aS)-1-[(5S)-5-methyl4,5,6,7-tetrahydrobenzothiophene-2-carbonyl]-2,3,3a,4,5,6,7,7a-octahydroindole-2-carboxylic acid
@<TRIPOS>ATOM
      1 C1          0.3234    1.4682    0.4003 C.3       1 <0>        -0.1449
      2 C2          0.2810   -0.0590    0.3166 C.3       1 <0>        -0.0931
      3 H1          0.7646   -0.3845   -0.6045 H         1 <0>         0.0719
      4 C3          1.0212   -0.6548    1.5174 C.3       1 <0>        -0.1052
      5 C4          1.2069   -2.1611    1.2848 C.3       1 <0>        -0.0371
      6 C5         -0.1055   -2.7373    0.8508 C.2       1 <0>        -0.2208
      7 C6         -1.2012   -2.0506    0.4108 C.2       1 <0>        -0.1514
      8 C7         -2.3110   -2.8034    0.0630 C.2       1 <0>        -0.0929
      9 C8         -2.2312   -4.1785    0.1837 C.2       1 <0>        -0.2349
     10 S1         -0.5684   -4.3954    0.7950 S.3       1 <0>         0.2751
     11 C9         -3.2469   -5.1929   -0.1129 C.2       1 <0>         0.6370
     12 O1         -4.3403   -4.8562   -0.5278 O.2       1 <0>        -0.5503
     13 N1         -2.9698   -6.4986    0.0740 N.am      1 <0>        -0.5801
     14 C10        -3.8814   -7.6176   -0.1783 C.3       1 <0>         0.1515
     15 H2         -4.4408   -7.8203    0.7350 H         1 <0>         0.0577
     16 C11        -4.8637   -7.3397   -1.2933 C.3       1 <0>        -0.1304
     17 C12        -4.1515   -7.2121   -2.6400 C.3       1 <0>        -0.1115
     18 C13        -3.4069   -8.5219   -2.9199 C.3       1 <0>        -0.1093
     19 C14        -2.3389   -8.7162   -1.8462 C.3       1 <0>        -0.1422
     20 C15        -2.9792   -8.8329   -0.4614 C.3       1 <0>        -0.0955
     21 H3         -3.4979   -9.7814   -0.3218 H         1 <0>         0.0904
     22 C16        -1.8412   -8.5905    0.5770 C.3       1 <0>        -0.1077
     23 C17        -1.6941   -7.0529    0.5621 C.3       1 <0>         0.0665
     24 H4         -1.4943   -6.6914    1.5708 H         1 <0>         0.0775
     25 C18        -0.5734   -6.6512   -0.3618 C.2       1 <0>         0.4585
     26 O2         -0.8217   -6.1092   -1.4128 O.co2     1 <0>        -0.6028
     27 C19        -1.1745   -0.5273    0.3165 C.3       1 <0>        -0.0453
     28 H5          1.3604    1.8039    0.3920 H         1 <0>         0.0533
     29 H6         -0.2032    1.8936   -0.4540 H         1 <0>         0.0533
     30 H7         -0.1569    1.7949    1.3227 H         1 <0>         0.0531
     31 H8          1.9959   -0.1777    1.6193 H         1 <0>         0.0671
     32 H9          0.4367   -0.4942    2.4233 H         1 <0>         0.0643
     33 H10         1.9540   -2.3233    0.5078 H         1 <0>         0.0801
     34 H11         1.5300   -2.6384    2.2100 H         1 <0>         0.0768
     35 H12        -3.2137   -2.3292   -0.2929 H         1 <0>         0.1296
     36 H13        -5.5842   -8.1559   -1.3463 H         1 <0>         0.0582
     37 H14        -5.3929   -6.4110   -1.0798 H         1 <0>         0.0954
     38 H15        -4.8838   -7.0309   -3.4267 H         1 <0>         0.0511
     39 H16        -3.4407   -6.3866   -2.6024 H         1 <0>         0.0726
     40 H17        -4.1093   -9.3550   -2.8920 H         1 <0>         0.0494
     41 H18        -2.9368   -8.4726   -3.9021 H         1 <0>         0.0543
     42 H19        -1.7766   -9.6252   -2.0595 H         1 <0>         0.0508
     43 H20        -1.6601   -7.8634   -1.8565 H         1 <0>         0.1101
     44 H21        -2.1370   -8.9446    1.5645 H         1 <0>         0.0680
     45 H22        -0.9167   -9.0710    0.2566 H         1 <0>         0.0887
     46 H23        -1.6961   -0.0991    1.1725 H         1 <0>         0.0671
     47 H24        -1.6604   -0.2098   -0.6061 H         1 <0>         0.0671
     48 O3          0.7007   -6.8955   -0.0172 O.co2     1 <0>        -0.7408
@<TRIPOS>BOND
     1    1    2 1
     2    1   28 1
     3    1   29 1
     4    1   30 1
     5    2    3 1
     6    2   27 1
     7    2    4 1
     8    4    5 1
     9    4   31 1
    10    4   32 1
    11    5    6 1
    12    5   33 1
    13    5   34 1
    14    6   10 1
    15    6    7 2
    16    7    8 1
    17    7   27 1
    18    8    9 2
    19    8   35 1
    20    9   10 1
    21    9   11 1
    22   11   12 2
    23   11   13 am
    24   13   23 1
    25   13   14 1
    26   14   15 1
    27   14   20 1
    28   14   16 1
    29   16   17 1
    30   16   36 1
    31   16   37 1
    32   17   18 1
    33   17   38 1
    34   17   39 1
    35   18   19 1
    36   18   40 1
    37   18   41 1
    38   19   20 1
    39   19   42 1
    40   19   43 1
    41   20   21 1
    42   20   22 1
    43   22   23 1
    44   22   44 1
    45   22   45 1
    46   23   24 1
    47   23   25 1
    48   25   26 2
    49   25   48 1
    50   27   46 1
    51   27   47 1
@<TRIPOS>MOLECULE
ZINC17130580
   32    33     0     0     0
SMALL
USER_CHARGES
3,5-dimethyl-4-[2-(trifluoromethyl)phenyl]azo-pyrazole-1-carbodithioic acid
@<TRIPOS>ATOM
      1 C1         -2.3924    4.2768   -0.1921 C.3       1 <0>        -0.0969
      2 C2         -3.5970    3.3812   -0.0589 C.2       1 <0>         0.1220
      3 C3         -3.6052    1.9734   -0.2056 C.2       1 <0>        -0.1155
      4 C4         -4.9014    1.5493    0.0004 C.2       1 <0>         0.2313
      5 N1         -5.6480    2.6474    0.2553 N.pl3     1 <0>        -0.2997
      6 N2         -4.8127    3.7692    0.2087 N.2       1 <0>        -0.2592
      7 C5         -6.9711    2.6594    0.5116 C.2       1 <0>         0.4324
      8 S1         -7.8243    1.1845    0.6778 S.2       1 <0>        -0.5754
      9 S2         -7.8228    4.1932    0.6754 S.3       1 <0>        -0.6012
     10 C6         -5.3942    0.1260   -0.0493 C.3       1 <0>        -0.1764
     11 N3         -2.5296    1.1822   -0.4919 N.2       1 <0>        -0.1121
     12 N4         -1.3660    1.7124   -0.6619 N.2       1 <0>        -0.2864
     13 C7         -0.2885    0.9198   -0.9487 C.ar      1 <0>         0.1306
     14 C8         -0.4446   -0.4644   -1.0583 C.ar      1 <0>        -0.1257
     15 C9          0.6449   -1.2566   -1.3532 C.ar      1 <0>        -0.0841
     16 C10         1.8907   -0.6836   -1.5410 C.ar      1 <0>        -0.1221
     17 C11         2.0527    0.6863   -1.4344 C.ar      1 <0>        -0.0698
     18 C12         0.9720    1.4910   -1.1390 C.ar      1 <0>        -0.1563
     19 C13         1.1504    2.9830   -1.0234 C.3       1 <0>         0.5154
     20 F1          2.4905    3.3116   -1.2539 F         1 <0>        -0.1833
     21 F2          0.3436    3.6239   -1.9697 F         1 <0>        -0.1694
     22 F3          0.7826    3.3985    0.2609 F         1 <0>        -0.1696
     23 H1         -1.5058    3.6672   -0.4209 H         1 <0>         0.1135
     24 H2         -2.2316    4.8179    0.7520 H         1 <0>         0.0793
     25 H3         -2.5605    4.9990   -1.0046 H         1 <0>         0.0797
     26 H4         -6.4746    0.1047    0.1561 H         1 <0>         0.1679
     27 H5         -4.8652   -0.4718    0.7075 H         1 <0>         0.0899
     28 H6         -5.2024   -0.2937   -1.0478 H         1 <0>         0.0848
     29 H7         -1.4162   -0.9128   -0.9120 H         1 <0>         0.1457
     30 H8          0.5257   -2.3266   -1.4383 H         1 <0>         0.1333
     31 H9          2.7405   -1.3089   -1.7721 H         1 <0>         0.1349
     32 H10         3.0277    1.1266   -1.5825 H         1 <0>         0.1424
@<TRIPOS>BOND
     1    1    2 1
     2    1   23 1
     3    1   24 1
     4    1   25 1
     5    2    6 2
     6    2    3 1
     7    3    4 2
     8    3   11 1
     9    4    5 1
    10    4   10 1
    11    5    6 1
    12    5    7 1
    13    7    8 2
    14    7    9 1
    15   10   26 1
    16   10   27 1
    17   10   28 1
    18   11   12 2
    19   12   13 1
    20   13   18 ar
    21   13   14 ar
    22   14   15 ar
    23   14   29 1
    24   15   16 ar
    25   15   30 1
    26   16   17 ar
    27   16   31 1
    28   17   18 ar
    29   17   32 1
    30   18   19 1
    31   19   20 1
    32   19   21 1
    33   19   22 1
@<TRIPOS>MOLECULE
ZINC39431424
   44    47     0     0     0
SMALL
USER_CHARGES

@<TRIPOS>ATOM
      1 C1          0.7188    1.3418   -0.0880 C.ar      1 <0>        -0.1058
      2 C2          0.5434    2.0237   -1.2809 C.ar      1 <0>        -0.1279
      3 C3          0.1875    1.3460   -2.4298 C.ar      1 <0>        -0.0724
      4 C4          0.0037   -0.0354   -2.3891 C.ar      1 <0>        -0.1363
      5 C5          0.1825   -0.7275   -1.1769 C.ar      1 <0>        -0.0025
      6 C6          0.5409   -0.0272   -0.0291 C.ar      1 <0>        -0.0897
      7 C7         -0.0135   -2.1913   -1.1418 C.2       1 <0>         0.3002
      8 N1          0.1498   -2.8533   -0.0142 N.2       1 <0>        -0.5728
      9 C8          0.0953   -4.2041   -0.0094 C.ar      1 <0>         0.1581
     10 C9          0.9559   -4.9478   -0.8296 C.ar      1 <0>        -0.1491
     11 C10         0.8934   -6.3240   -0.8176 C.ar      1 <0>        -0.0955
     12 C11        -0.0162   -6.9731    0.0008 C.ar      1 <0>        -0.1295
     13 C12        -0.8702   -6.2470    0.8143 C.ar      1 <0>        -0.0989
     14 C13        -0.8183   -4.8703    0.8201 C.ar      1 <0>        -0.1436
     15 C14        -0.0773   -8.4788    0.0058 C.3       1 <0>        -0.0633
     16 C15         0.8808   -9.0246    1.0666 C.3       1 <0>        -0.0724
     17 C16         0.8197  -10.5304    1.0716 C.ar      1 <0>        -0.1259
     18 C17        -0.0898  -11.1935    1.8816 C.ar      1 <0>        -0.0753
     19 C18        -0.1103  -12.5793    1.8536 C.ar      1 <0>        -0.1715
     20 C19         0.7701  -13.2494    1.0251 C.ar      1 <0>         0.0865
     21 N2          1.6220  -12.5857    0.2684 N.ar      1 <0>        -0.4846
     22 C20         1.6653  -11.2676    0.2648 C.ar      1 <0>         0.0996
     23 C21        -0.3903   -2.9037   -2.3633 C.2       1 <0>        -0.4316
     24 C22        -0.5619   -2.2396   -3.5286 C.2       1 <0>         0.2399
     25 C23        -0.3758   -0.7842   -3.6001 C.2       1 <0>         0.3894
     26 O1         -0.5345   -0.1990   -4.6558 O.2       1 <0>        -0.4384
     27 O2         -0.9110   -2.9263   -4.6462 O.3       1 <0>        -0.6526
     28 H1          1.0013    1.8839    0.8024 H         1 <0>         0.1256
     29 H2          0.6858    3.0938   -1.3123 H         1 <0>         0.1256
     30 H3          0.0516    1.8839   -3.3565 H         1 <0>         0.1335
     31 H4          0.6798   -0.5519    0.9045 H         1 <0>         0.1403
     32 H5          1.6653   -4.4433   -1.4689 H         1 <0>         0.1182
     33 H6          1.5553   -6.8985   -1.4485 H         1 <0>         0.1132
     34 H7         -1.5764   -6.7618    1.4489 H         1 <0>         0.1124
     35 H8         -1.4821   -4.3058    1.4581 H         1 <0>         0.1160
     36 H9         -1.0934   -8.8005    0.2341 H         1 <0>         0.0665
     37 H10         0.2121   -8.8575   -0.9745 H         1 <0>         0.0686
     38 H11         1.8970   -8.7030    0.8383 H         1 <0>         0.0779
     39 H12         0.5914   -8.6460    2.0469 H         1 <0>         0.0758
     40 H13        -0.7657  -10.6433    2.5194 H         1 <0>         0.1336
     41 H14        -0.8052  -13.1285    2.4716 H         1 <0>         0.1328
     42 H15         0.7605  -14.3290    0.9975 H         1 <0>         0.1526
     43 H16         2.3732  -10.7586   -0.3725 H         1 <0>         0.1550
     44 H17        -0.5327   -3.9738   -2.3337 H         1 <0>         0.1183
@<TRIPOS>BOND
     1    1    6 ar
     2    1    2 ar
     3    1   28 1
     4    2    3 ar
     5    2   29 1
     6    3    4 ar
     7    3   30 1
     8    4   25 1
     9    4    5 ar
    10    5    6 ar
    11    5    7 1
    12    6   31 1
    13    7    8 2
    14    7   23 1
    15    8    9 1
    16    9   14 ar
    17    9   10 ar
    18   10   11 ar
    19   10   32 1
    20   11   12 ar
    21   11   33 1
    22   12   13 ar
    23   12   15 1
    24   13   14 ar
    25   13   34 1
    26   14   35 1
    27   15   16 1
    28   15   36 1
    29   15   37 1
    30   16   17 1
    31   16   38 1
    32   16   39 1
    33   17   22 ar
    34   17   18 ar
    35   18   19 ar
    36   18   40 1
    37   19   20 ar
    38   19   41 1
    39   20   21 ar
    40   20   42 1
    41   21   22 ar
    42   22   43 1
    43   23   24 2
    44   23   44 1
    45   24   25 1
    46   24   27 1
    47   25   26 2
@<TRIPOS>MOLECULE
ZINC50204583
   32    34     0     0     0
SMALL
USER_CHARGES

@<TRIPOS>ATOM
      1 C1         -0.0167    1.3777    0.0096 C.ar      1 <0>        -0.1054
      2 C2          1.1710    2.0855    0.0021 C.ar      1 <0>        -0.1071
      3 C3          2.3777    1.4116   -0.0130 C.ar      1 <0>        -0.0212
      4 C4          2.3977    0.0294   -0.0210 C.ar      1 <0>        -0.1138
      5 C5          1.2098   -0.6793   -0.0135 C.ar      1 <0>        -0.0312
      6 C6          0.0021   -0.0041    0.0020 C.ar      1 <0>        -0.1241
      7 Cl1         1.2341   -2.4151   -0.0242 Cl        1 <0>        -0.0797
      8 C7          3.6718    2.1839   -0.0212 C.3       1 <0>        -0.1151
      9 H1          3.6170    3.1887   -0.4400 H         1 <0>         0.1175
     10 C8          4.9637    1.3951   -0.2441 C.3       1 <0>        -0.1475
     11 C9          4.6382    1.9554    1.1427 C.3       1 <0>        -0.0912
     12 H2          4.3380    1.2465    1.9144 H         1 <0>         0.1177
     13 C10         5.4418    3.1367    1.6220 C.2       1 <0>         0.5131
     14 O1          4.9125    3.9929    2.5204 O.3       1 <0>        -0.7171
     15 N1          6.6363    3.3293    1.1733 N.2       1 <0>        -1.0521
     16 S1          7.5193    4.6274    1.7000 S.o2      1 <0>         2.6764
     17 O2          6.8565    5.7901    1.2226 O.2       1 <0>        -0.9966
     18 O3          7.7770    4.4101    3.0804 O.2       1 <0>        -0.9965
     19 C11         9.0780    4.5641    0.8807 C.2       1 <0>        -0.6843
     20 C12         9.4455    5.1215   -0.2990 C.2       1 <0>        -0.0413
     21 C13        10.7383    4.9389   -0.7527 C.2       1 <0>        -0.1812
     22 C14        11.6004    4.2079   -0.0046 C.2       1 <0>        -0.1665
     23 S2         10.5852    3.7558    1.3926 S.3       1 <0>         0.1436
     24 H3         -0.9592    1.9048    0.0259 H         1 <0>         0.1303
     25 H4          1.1559    3.1654    0.0076 H         1 <0>         0.1312
     26 H5          3.3407   -0.4970   -0.0336 H         1 <0>         0.1366
     27 H6         -0.9257   -0.5568    0.0079 H         1 <0>         0.1286
     28 H7          4.8777    0.3177   -0.3849 H         1 <0>         0.0932
     29 H8          5.7590    1.8812   -0.8093 H         1 <0>         0.1141
     30 H9          8.7386    5.6994   -0.8759 H         1 <0>         0.1437
     31 H10        11.0567    5.3720   -1.6895 H         1 <0>         0.1369
     32 H11        12.6343    3.9652   -0.2009 H         1 <0>         0.1887
@<TRIPOS>BOND
     1    1    6 ar
     2    1    2 ar
     3    1   24 1
     4    2    3 ar
     5    2   25 1
     6    3    4 ar
     7    3    8 1
     8    4    5 ar
     9    4   26 1
    10    5    6 ar
    11    5    7 1
    12    6   27 1
    13    8    9 1
    14    8   11 1
    15    8   10 1
    16   10   11 1
    17   10   28 1
    18   10   29 1
    19   11   12 1
    20   11   13 1
    21   13   14 1
    22   13   15 2
    23   15   16 1
    24   16   17 2
    25   16   18 2
    26   16   19 1
    27   19   23 1
    28   19   20 2
    29   20   21 1
    30   20   30 1
    31   21   22 2
    32   21   31 1
    33   22   23 1
    34   22   32 1
@<TRIPOS>MOLECULE
ZINC61693044
   30    30     0     0     0
SMALL
USER_CHARGES

@<TRIPOS>ATOM
      1 C1         -0.0187    1.5258    0.0104 C.3       1 <0>        -0.1702
      2 C2          0.0021   -0.0041    0.0020 C.3       1 <0>         0.1213
      3 N1          0.7106   -0.4894    1.1889 N.pl3     1 <0>        -0.9906
      4 C3         -0.0062   -0.6460    2.4569 C.3       1 <0>         0.1313
      5 C4         -0.6935   -2.0126    2.4888 C.3       1 <0>        -0.1710
      6 S1          2.3218   -0.8609    1.0971 S.o2      1 <0>         2.7145
      7 O1          2.5856   -1.7855    2.1435 O.2       1 <0>        -1.0438
      8 O2          2.5937   -1.1554   -0.2662 O.2       1 <0>        -1.0460
      9 N2          3.1637    0.5180    1.4605 N.2       1 <0>        -1.0844
     10 C5          4.5611    0.5037    1.4615 C.ar      1 <0>         0.2984
     11 C6          5.2453   -0.6645    1.1523 C.ar      1 <0>        -0.2306
     12 C7          6.6273   -0.6752    1.1537 C.ar      1 <0>        -0.0206
     13 C8          7.3293    0.4765    1.4631 C.ar      1 <0>        -0.1936
     14 C9          6.6513    1.6413    1.7714 C.ar      1 <0>        -0.0638
     15 C10         5.2693    1.6602    1.7663 C.ar      1 <0>        -0.0842
     16 Cl1         4.4189    3.1251    2.1464 Cl        1 <0>        -0.0826
     17 Br1         7.5599   -2.2655    0.7328 Br        1 <0>        -0.0834
     18 H1          1.0039    1.9031    0.0027 H         1 <0>         0.0703
     19 H2         -0.5459    1.8868   -0.8726 H         1 <0>         0.0545
     20 H3         -0.5289    1.8773    0.9072 H         1 <0>         0.0526
     21 H4         -1.0205   -0.3814    0.0098 H         1 <0>         0.0644
     22 H5          0.5123   -0.3556   -0.8948 H         1 <0>         0.0833
     23 H6          0.6997   -0.5749    3.2845 H         1 <0>         0.0776
     24 H7         -0.7557    0.1399    2.5501 H         1 <0>         0.0663
     25 H8         -1.2268   -2.1291    3.4323 H         1 <0>         0.0599
     26 H9         -1.3993   -2.0837    1.6613 H         1 <0>         0.0517
     27 H10         0.0560   -2.7985    2.3957 H         1 <0>         0.0601
     28 H11         4.6980   -1.5638    0.9114 H         1 <0>         0.1130
     29 H12         8.4093    0.4653    1.4642 H         1 <0>         0.1214
     30 H13         7.2022    2.5384    2.0125 H         1 <0>         0.1242
@<TRIPOS>BOND
     1    1    2 1
     2    1   18 1
     3    1   19 1
     4    1   20 1
     5    2    3 1
     6    2   21 1
     7    2   22 1
     8    3    4 1
     9    3    6 1
    10    4    5 1
    11    4   23 1
    12    4   24 1
    13    5   25 1
    14    5   26 1
    15    5   27 1
    16    6    7 2
    17    6    8 2
    18    6    9 1
    19    9   10 1
    20   10   15 ar
    21   10   11 ar
    22   11   12 ar
    23   11   28 1
    24   12   13 ar
    25   12   17 1
    26   13   14 ar
    27   13   29 1
    28   14   15 ar
    29   14   30 1
    30   15   16 1
@<TRIPOS>MOLECULE
ZINC13185700
   51    53     0     0     0
SMALL
USER_CHARGES
4-phenyl-1-(4-phenylsulfanylbutanoyl)piperidine-4-carboxylic acid
@<TRIPOS>ATOM
      1 C1         -3.5392    0.9919    3.5128 C.ar      1 <0>        -0.1373
      2 C2         -3.1783    0.0227    2.5955 C.ar      1 <0>        -0.1296
      3 C3         -2.4639    0.3728    1.4650 C.ar      1 <0>        -0.0895
      4 C4         -2.1105    1.6921    1.2518 C.ar      1 <0>        -0.0454
      5 C5         -2.4668    2.6605    2.1717 C.ar      1 <0>        -0.1282
      6 C6         -3.1857    2.3112    3.2996 C.ar      1 <0>        -0.1313
      7 C7         -1.3313    2.0738    0.0196 C.3       1 <0>        -0.0699
      8 C8         -2.1347    1.6993   -1.2279 C.3       1 <0>        -0.1007
      9 C9         -1.3254    2.0567   -2.4782 C.3       1 <0>         0.1073
     10 N1         -0.9476    3.4747   -2.4073 N.am      1 <0>        -0.5993
     11 C10        -0.2503    3.9610   -1.2090 C.3       1 <0>         0.0990
     12 C11        -1.0718    3.5820    0.0273 C.3       1 <0>        -0.1019
     13 C12        -1.2354    4.3137   -3.4221 C.2       1 <0>         0.5106
     14 O1         -0.9185    5.4822   -3.3514 O.2       1 <0>        -0.5543
     15 C13        -1.9511    3.7997   -4.6447 C.3       1 <0>        -0.1352
     16 C14        -2.1535    4.9466   -5.6370 C.3       1 <0>        -0.0869
     17 C15        -2.8801    4.4248   -6.8783 C.3       1 <0>        -0.1063
     18 S1         -3.1201    5.7845   -8.0547 S.3       1 <0>        -0.1141
     19 C16        -3.9577    5.0325   -9.4103 C.ar      1 <0>        -0.0807
     20 C17        -4.2623    3.6770   -9.3755 C.ar      1 <0>        -0.1349
     21 C18        -4.9238    3.0923  -10.4372 C.ar      1 <0>        -0.1000
     22 C19        -5.2735    3.8516  -11.5390 C.ar      1 <0>        -0.1293
     23 C20        -4.9666    5.1995  -11.5797 C.ar      1 <0>        -0.1020
     24 C21        -4.3103    5.7923  -10.5193 C.ar      1 <0>        -0.1030
     25 C22        -0.0161    1.3381    0.0094 C.2       1 <0>         0.4810
     26 O2          1.0219    1.9564    0.0028 O.co2     1 <0>        -0.6271
     27 H1         -4.0970    0.7183    4.3962 H         1 <0>         0.1115
     28 H2         -3.4541   -1.0081    2.7623 H         1 <0>         0.1146
     29 H3         -2.1817   -0.3844    0.7486 H         1 <0>         0.1380
     30 H4         -2.1869    3.6905    2.0073 H         1 <0>         0.1200
     31 H5         -3.4674    3.0683    4.0164 H         1 <0>         0.1128
     32 H6         -2.3393    0.6286   -1.2211 H         1 <0>         0.0825
     33 H7         -3.0754    2.2498   -1.2337 H         1 <0>         0.0564
     34 H8         -1.9315    1.8840   -3.3676 H         1 <0>         0.0781
     35 H9         -0.4271    1.4410   -2.5231 H         1 <0>         0.0787
     36 H10        -0.1471    5.0449   -1.2608 H         1 <0>         0.0778
     37 H11         0.7366    3.5025   -1.1465 H         1 <0>         0.1098
     38 H12        -2.0225    4.1148    0.0097 H         1 <0>         0.0518
     39 H13        -0.5197    3.8516    0.9276 H         1 <0>         0.0739
     40 H14        -1.3549    3.0159   -5.1121 H         1 <0>         0.0945
     41 H15        -2.9206    3.3947   -4.3548 H         1 <0>         0.0941
     42 H16        -2.7497    5.7304   -5.1697 H         1 <0>         0.0813
     43 H17        -1.1840    5.3516   -5.9269 H         1 <0>         0.0819
     44 H18        -2.2839    3.6410   -7.3456 H         1 <0>         0.0895
     45 H19        -3.8496    4.0197   -6.5883 H         1 <0>         0.0892
     46 H20        -3.9858    3.0826   -8.5172 H         1 <0>         0.1242
     47 H21        -5.1648    2.0399  -10.4090 H         1 <0>         0.1251
     48 H22        -5.7872    3.3907  -12.3697 H         1 <0>         0.1235
     49 H23        -5.2409    5.7893  -12.4419 H         1 <0>         0.1265
     50 H24        -4.0709    6.8449  -10.5518 H         1 <0>         0.1272
     51 O3          0.0021   -0.0041    0.0020 O.co2     1 <0>        -0.7540
@<TRIPOS>BOND
     1    1    6 ar
     2    1    2 ar
     3    1   27 1
     4    2    3 ar
     5    2   28 1
     6    3    4 ar
     7    3   29 1
     8    4    5 ar
     9    4    7 1
    10    5    6 ar
    11    5   30 1
    12    6   31 1
    13    7   12 1
    14    7    8 1
    15    7   25 1
    16    8    9 1
    17    8   32 1
    18    8   33 1
    19    9   10 1
    20    9   34 1
    21    9   35 1
    22   10   11 1
    23   10   13 am
    24   11   12 1
    25   11   36 1
    26   11   37 1
    27   12   38 1
    28   12   39 1
    29   13   14 2
    30   13   15 1
    31   15   16 1
    32   15   40 1
    33   15   41 1
    34   16   17 1
    35   16   42 1
    36   16   43 1
    37   17   18 1
    38   17   44 1
    39   17   45 1
    40   18   19 1
    41   19   24 ar
    42   19   20 ar
    43   20   21 ar
    44   20   46 1
    45   21   22 ar
    46   21   47 1
    47   22   23 ar
    48   22   48 1
    49   23   24 ar
    50   23   49 1
    51   24   50 1
    52   25   26 2
    53   25   51 1
@<TRIPOS>MOLECULE
ZINC37827790
   42    42     0     0     0
SMALL
USER_CHARGES

@<TRIPOS>ATOM
      1 C1          1.3949    1.8856   -1.6593 C.3       1 <0>        -0.1699
      2 C2          1.5609    0.3646   -1.6597 C.3       1 <0>         0.1063
      3 N1          1.5517   -0.1273   -3.0396 N.am      1 <0>        -0.6229
      4 C3          2.8070   -0.2357   -3.7871 C.3       1 <0>         0.2008
      5 C4          3.4041   -1.6023   -3.5706 C.2       1 <0>        -0.1332
      6 C5          3.2179   -2.7379   -4.2863 C.2       1 <0>        -0.1306
      7 C6          3.8770   -3.8901   -3.8994 C.2       1 <0>        -0.0936
      8 C7          4.6904   -3.8491   -2.8149 C.2       1 <0>        -0.1837
      9 S1          4.5462   -2.1430   -2.3095 S.3       1 <0>         0.0689
     10 Br1         5.7168   -5.2371   -2.0430 Br        1 <0>         0.0247
     11 C8          0.3883   -0.4801   -3.6215 C.2       1 <0>         0.5339
     12 O1          0.3807   -0.8873   -4.7639 O.2       1 <0>        -0.5025
     13 C9         -0.9030   -0.3686   -2.8527 C.3       1 <0>        -0.1022
     14 C10        -2.0641   -0.8285   -3.7365 C.3       1 <0>        -0.1124
     15 C11        -2.1358    0.0539   -4.9844 C.3       1 <0>        -0.1314
     16 C12        -3.3752   -0.7153   -2.9559 C.3       1 <0>        -0.0737
     17 C13        -3.2938   -1.5774   -1.6945 C.3       1 <0>        -0.1422
     18 C14        -3.6096    0.7444   -2.5618 C.3       1 <0>        -0.1463
     19 C15        -1.8460   -2.2621   -4.1467 C.2       1 <0>         0.5214
     20 O2         -2.5754   -2.7762   -4.9774 O.co2     1 <0>        -0.7058
     21 O3         -0.9400   -2.9077   -3.6480 O.co2     1 <0>        -0.6937
     22 H1          2.2161    2.3409   -2.2128 H         1 <0>         0.0557
     23 H2          0.4485    2.1479   -2.1322 H         1 <0>         0.0597
     24 H3          1.4017    2.2516   -0.6326 H         1 <0>         0.0642
     25 H4          2.5073    0.1023   -1.1868 H         1 <0>         0.0714
     26 H5          0.7397   -0.0907   -1.1062 H         1 <0>         0.0813
     27 H6          2.6113   -0.0888   -4.8492 H         1 <0>         0.1065
     28 H7          3.5048    0.5253   -3.4376 H         1 <0>         0.0867
     29 H8          2.5641   -2.7430   -5.1459 H         1 <0>         0.1477
     30 H9          3.7459   -4.8086   -4.4522 H         1 <0>         0.1392
     31 H10        -0.8520   -0.9972   -1.9636 H         1 <0>         0.0892
     32 H11        -1.0608    0.6683   -2.5559 H         1 <0>         0.0697
     33 H12        -1.2018   -0.0268   -5.5405 H         1 <0>         0.0697
     34 H13        -2.9630   -0.2738   -5.6140 H         1 <0>         0.0506
     35 H14        -2.2936    1.0907   -4.6876 H         1 <0>         0.0295
     36 H15        -4.2001   -1.0603   -3.5792 H         1 <0>         0.0704
     37 H16        -2.5366   -1.1702   -1.0244 H         1 <0>         0.0466
     38 H17        -4.2610   -1.5784   -1.1921 H         1 <0>         0.0409
     39 H18        -3.0256   -2.5978   -1.9685 H         1 <0>         0.0625
     40 H19        -4.5436    0.8250   -2.0056 H         1 <0>         0.0442
     41 H20        -2.7847    1.0894   -1.9384 H         1 <0>         0.0490
     42 H21        -3.6676    1.3586   -3.4604 H         1 <0>         0.0535
@<TRIPOS>BOND
     1    1    2 1
     2    1   22 1
     3    1   23 1
     4    1   24 1
     5    2    3 1
     6    2   25 1
     7    2   26 1
     8    3    4 1
     9    3   11 am
    10    4    5 1
    11    4   27 1
    12    4   28 1
    13    5    9 1
    14    5    6 2
    15    6    7 1
    16    6   29 1
    17    7    8 2
    18    7   30 1
    19    8    9 1
    20    8   10 1
    21   11   12 2
    22   11   13 1
    23   13   14 1
    24   13   31 1
    25   13   32 1
    26   14   15 1
    27   14   16 1
    28   14   19 1
    29   15   33 1
    30   15   34 1
    31   15   35 1
    32   16   17 1
    33   16   18 1
    34   16   36 1
    35   17   37 1
    36   17   38 1
    37   17   39 1
    38   18   40 1
    39   18   41 1
    40   18   42 1
    41   19   20 2
    42   19   21 1
@<TRIPOS>MOLECULE
ZINC48529013
   29    30     0     0     0
SMALL
USER_CHARGES

@<TRIPOS>ATOM
      1 C1         -1.3750   -2.4778   -2.1695 C.3       1 <0>        -0.0651
      2 C2         -0.5839   -1.7230   -1.1325 C.2       1 <0>         0.0106
      3 C3         -1.0737   -0.7535   -0.2999 C.2       1 <0>        -0.1809
      4 C4          0.0698   -0.3245    0.5210 C.2       1 <0>        -0.1757
      5 C5          1.1137   -1.0605    0.1126 C.2       1 <0>        -0.0594
      6 O1          0.7146   -1.8899   -0.8645 O.3       1 <0>        -0.1859
      7 C6         -2.4499   -0.2477   -0.2390 C.2       1 <0>         0.4157
      8 O2         -3.4728   -1.1001   -0.0237 O.3       1 <0>        -0.5943
      9 C7         -2.7001    1.1146   -0.4038 C.2       1 <0>        -0.4108
     10 C8         -1.6308    2.0025   -0.7488 C.1       1 <0>         0.3088
     11 N1         -0.7826    2.7068   -1.0224 N.1       1 <0>        -0.5323
     12 C9         -4.0550    1.6364   -0.2241 C.2       1 <0>         0.4451
     13 O3         -4.9813    0.8707   -0.0281 O.2       1 <0>        -0.4668
     14 C10        -4.2996    3.0938   -0.2805 C.ar      1 <0>        -0.0785
     15 C11        -4.8827    3.6636   -1.4139 C.ar      1 <0>        -0.0943
     16 C12        -5.1081    5.0235   -1.4601 C.ar      1 <0>        -0.1061
     17 C13        -4.7573    5.8234   -0.3865 C.ar      1 <0>        -0.1231
     18 C14        -4.1793    5.2661    0.7397 C.ar      1 <0>        -0.0904
     19 C15        -3.9538    3.9054    0.8018 C.ar      1 <0>        -0.0772
     20 I1         -3.0867    3.0617    2.5122 I         1 <0>        -0.0347
     21 H1         -0.7062   -3.1254   -2.7365 H         1 <0>         0.0677
     22 H2         -2.1356   -3.0833   -1.6766 H         1 <0>         0.0911
     23 H3         -1.8555   -1.7706   -2.8457 H         1 <0>         0.0835
     24 H4          0.0686    0.4295    1.2943 H         1 <0>         0.1466
     25 H5          2.1162   -0.9985    0.5097 H         1 <0>         0.1978
     26 H6         -5.1563    3.0409   -2.2528 H         1 <0>         0.1303
     27 H7         -5.5590    5.4653   -2.3364 H         1 <0>         0.1265
     28 H8         -4.9355    6.8878   -0.4284 H         1 <0>         0.1258
     29 H9         -3.9080    5.8959    1.5740 H         1 <0>         0.1261
@<TRIPOS>BOND
     1    1    2 1
     2    1   21 1
     3    1   22 1
     4    1   23 1
     5    2    6 1
     6    2    3 2
     7    3    4 1
     8    3    7 1
     9    4    5 2
    10    4   24 1
    11    5    6 1
    12    5   25 1
    13    7    8 1
    14    7    9 2
    15    9   10 1
    16    9   12 1
    17   10   11 3
    18   12   13 2
    19   12   14 1
    20   14   19 ar
    21   14   15 ar
    22   15   16 ar
    23   15   26 1
    24   16   17 ar
    25   16   27 1
    26   17   18 ar
    27   17   28 1
    28   18   19 ar
    29   18   29 1
    30   19   20 1
@<TRIPOS>MOLECULE
ZINC18708247
   38    40     0     0     0
SMALL
USER_CHARGES

@<TRIPOS>ATOM
      1 C1         -0.0166    1.3766    0.0096 C.ar      1 <0>        -0.0689
      2 C2          1.1707    2.0859    0.0021 C.ar      1 <0>        -0.1804
      3 C3          2.3799    1.4157   -0.0135 C.ar      1 <0>        -0.0363
      4 C4          2.4059    0.0347   -0.0211 C.ar      1 <0>        -0.1483
      5 C5          1.2154   -0.6807   -0.0131 C.ar      1 <0>         0.2760
      6 C6          0.0021   -0.0041    0.0020 C.ar      1 <0>        -0.2455
      7 N1          1.2380   -2.0772   -0.0208 N.2       1 <0>        -1.0860
      8 S1         -0.1825   -2.9284   -0.0112 S.o2      1 <0>         2.5997
      9 O1         -0.8016   -2.6713    1.2417 O.2       1 <0>        -1.0199
     10 O2         -0.8263   -2.6580   -1.2488 O.2       1 <0>        -1.0199
     11 C7          0.2357   -4.6400   -0.0245 C.ar      1 <0>        -0.5599
     12 C8          0.3932   -5.3030   -1.2269 C.ar      1 <0>        -0.0661
     13 C9          0.7214   -6.6482   -1.2385 C.ar      1 <0>         0.1048
     14 C10         0.8921   -7.3288   -0.0454 C.ar      1 <0>        -0.1550
     15 C11         0.7345   -6.6636    1.1583 C.ar      1 <0>         0.1047
     16 C12         0.4114   -5.3171    1.1674 C.ar      1 <0>        -0.0662
     17 F1          0.9009   -7.3266    2.3236 F         1 <0>        -0.1309
     18 F2          0.8745   -7.2963   -2.4140 F         1 <0>        -0.1309
     19 C13         3.6711    2.1928   -0.0226 C.3       1 <0>         0.0404
     20 S2          3.7577    3.2466    1.4545 S.3       1 <0>        -0.2176
     21 C14         5.2896    4.1889    1.2216 C.3       1 <0>        -0.1064
     22 C15         5.1881    5.0492   -0.0329 C.3       1 <0>        -0.1210
     23 C16         5.2715    4.1895   -1.2892 C.3       1 <0>        -0.1063
     24 S3          3.7363    3.2473   -1.5003 S.3       1 <0>        -0.2181
     25 H1         -0.9594    1.9032    0.0259 H         1 <0>         0.1085
     26 H2          1.1532    3.1658    0.0080 H         1 <0>         0.1149
     27 H3          3.3508   -0.4882   -0.0336 H         1 <0>         0.1149
     28 H4         -0.9254   -0.5574    0.0082 H         1 <0>         0.0999
     29 H5          0.2600   -4.7718   -2.1577 H         1 <0>         0.1577
     30 H6          1.1477   -8.3781   -0.0535 H         1 <0>         0.1507
     31 H7          0.2927   -4.7969    2.1064 H         1 <0>         0.1577
     32 H8          4.5135    1.5012   -0.0300 H         1 <0>         0.1055
     33 H9          5.4550    4.8301    2.0874 H         1 <0>         0.1101
     34 H10         6.1269    3.4985    1.1198 H         1 <0>         0.0799
     35 H11         4.2375    5.5824   -0.0259 H         1 <0>         0.0898
     36 H12         6.0038    5.7723   -0.0387 H         1 <0>         0.0784
     37 H13         5.4243    4.8311   -2.1570 H         1 <0>         0.1100
     38 H14         6.1102    3.4990   -1.1999 H         1 <0>         0.0799
@<TRIPOS>BOND
     1    1    6 ar
     2    1    2 ar
     3    1   25 1
     4    2    3 ar
     5    2   26 1
     6    3    4 ar
     7    3   19 1
     8    4    5 ar
     9    4   27 1
    10    5    6 ar
    11    5    7 1
    12    6   28 1
    13    7    8 1
    14    8    9 2
    15    8   10 2
    16    8   11 1
    17   11   16 ar
    18   11   12 ar
    19   12   13 ar
    20   12   29 1
    21   13   14 ar
    22   13   18 1
    23   14   15 ar
    24   14   30 1
    25   15   16 ar
    26   15   17 1
    27   16   31 1
    28   19   24 1
    29   19   20 1
    30   19   32 1
    31   20   21 1
    32   21   22 1
    33   21   33 1
    34   21   34 1
    35   22   23 1
    36   22   35 1
    37   22   36 1
    38   23   24 1
    39   23   37 1
    40   23   38 1
@<TRIPOS>MOLECULE
ZINC66814049
   37    38     0     0     0
SMALL
USER_CHARGES

@<TRIPOS>ATOM
      1 C1         -0.0401    1.5439    0.0360 C.3       1 <0>        -0.1460
      2 C2         -0.0042    0.0145    0.0100 C.3       1 <0>        -0.1070
      3 H1          0.4299   -0.3228   -0.9312 H         1 <0>         0.0916
      4 C3          0.8458   -0.4955    1.1754 C.3       1 <0>        -0.0010
      5 C4          0.9797   -1.9584    1.0817 C.1       1 <0>         0.2071
      6 N1          1.0831   -3.0874    1.0094 N.1       1 <0>        -0.4308
      7 S1         -1.6918   -0.6327    0.1639 S.3       1 <0>        -0.0662
      8 C5         -2.4466   -0.2252   -1.3752 C.ar      1 <0>        -0.1480
      9 C6         -1.6900    0.3343   -2.3946 C.ar      1 <0>        -0.0900
     10 C7         -2.2844    0.6527   -3.6015 C.ar      1 <0>        -0.2070
     11 C8         -3.6326    0.4157   -3.7967 C.ar      1 <0>        -0.0663
     12 C9         -4.3945   -0.1413   -2.7860 C.ar      1 <0>        -0.2494
     13 C10        -3.8058   -0.4696   -1.5745 C.ar      1 <0>         0.3001
     14 N2         -4.5740   -1.0392   -0.5520 N.2       1 <0>        -1.0734
     15 S2         -6.1869   -1.3282   -0.7912 S.o2      1 <0>         2.6015
     16 O1         -6.8110   -0.0590   -0.9280 O.2       1 <0>        -1.0193
     17 O2         -6.2755   -2.3326   -1.7925 O.2       1 <0>        -1.0194
     18 C11        -6.8143   -2.0404    0.6934 C.ar      1 <0>        -0.5598
     19 C12        -6.7975   -3.4121    0.8620 C.ar      1 <0>        -0.0652
     20 C13        -7.2907   -3.9729    2.0281 C.ar      1 <0>         0.1052
     21 C14        -7.8002   -3.1592    3.0252 C.ar      1 <0>        -0.1543
     22 C15        -7.8161   -1.7855    2.8554 C.ar      1 <0>         0.1049
     23 C16        -7.3176   -1.2266    1.6907 C.ar      1 <0>        -0.0650
     24 F1         -8.3130   -0.9901    3.8278 F         1 <0>        -0.1309
     25 F2         -7.2750   -5.3138    2.1923 F         1 <0>        -0.1308
     26 H2          0.9786    1.9315    0.0271 H         1 <0>         0.0588
     27 H3         -0.5757    1.9097   -0.8401 H         1 <0>         0.0699
     28 H4         -0.5489    1.8801    0.9395 H         1 <0>         0.0710
     29 H5          1.8337   -0.0367    1.1327 H         1 <0>         0.1167
     30 H6          0.3644   -0.2343    2.1179 H         1 <0>         0.1148
     31 H7         -0.6369    0.5214   -2.2453 H         1 <0>         0.1099
     32 H8         -1.6940    1.0882   -4.3941 H         1 <0>         0.1056
     33 H9         -4.0920    0.6666   -4.7414 H         1 <0>         0.1056
     34 H10        -5.4474   -0.3246   -2.9420 H         1 <0>         0.1020
     35 H11        -6.4000   -4.0468    0.0839 H         1 <0>         0.1569
     36 H12        -8.1854   -3.5958    3.9348 H         1 <0>         0.1507
     37 H13        -7.3258   -0.1546    1.5598 H         1 <0>         0.1575
@<TRIPOS>BOND
     1    1    2 1
     2    1   26 1
     3    1   27 1
     4    1   28 1
     5    2    3 1
     6    2    4 1
     7    2    7 1
     8    4    5 1
     9    4   29 1
    10    4   30 1
    11    5    6 3
    12    7    8 1
    13    8   13 ar
    14    8    9 ar
    15    9   10 ar
    16    9   31 1
    17   10   11 ar
    18   10   32 1
    19   11   12 ar
    20   11   33 1
    21   12   13 ar
    22   12   34 1
    23   13   14 1
    24   14   15 1
    25   15   16 2
    26   15   17 2
    27   15   18 1
    28   18   23 ar
    29   18   19 ar
    30   19   20 ar
    31   19   35 1
    32   20   21 ar
    33   20   25 1
    34   21   22 ar
    35   21   36 1
    36   22   23 ar
    37   22   24 1
    38   23   37 1
@<TRIPOS>MOLECULE
ZINC00132586
   35    37     0     0     0
SMALL
USER_CHARGES
(1S,2R)-2-[[6-(4-fluorophenoxy)-3-pyridyl]carbamoyl]cyclopropane-1-carboxylic acid
@<TRIPOS>ATOM
      1 C1         -2.0894    6.5419   -1.0800 C.ar      1 <0>        -0.0896
      2 C2         -3.3280    7.1398   -0.9510 C.ar      1 <0>        -0.1408
      3 C3         -3.9511    7.1835    0.2847 C.ar      1 <0>         0.0948
      4 C4         -3.3369    6.6224    1.3915 C.ar      1 <0>        -0.1389
      5 C5         -2.1011    6.0184    1.2644 C.ar      1 <0>        -0.0890
      6 C6         -1.4753    5.9742    0.0270 C.ar      1 <0>         0.0961
      7 O1         -0.2592    5.3802   -0.0996 O.3       1 <0>        -0.2489
      8 C7         -0.2077    4.0239   -0.0833 C.ar      1 <0>         0.2793
      9 C8          1.0249    3.3835   -0.1041 C.ar      1 <0>        -0.1509
     10 C9          1.0671    2.0011   -0.0877 C.ar      1 <0>        -0.0548
     11 C10        -0.1375    1.3009   -0.0506 C.ar      1 <0>         0.0904
     12 C11        -1.3300    2.0085   -0.0374 C.ar      1 <0>         0.0991
     13 N1         -1.3315    3.3278   -0.0481 N.ar      1 <0>        -0.5077
     14 N2         -0.1436   -0.1003   -0.0328 N.am      1 <0>        -0.6719
     15 C12         0.9160   -0.7726    0.4590 C.2       1 <0>         0.5286
     16 O2          1.8290   -0.1679    0.9806 O.2       1 <0>        -0.4586
     17 C13         0.9665   -2.2755    0.3608 C.3       1 <0>        -0.1842
     18 H1          0.5941   -2.6984   -0.5723 H         1 <0>         0.1198
     19 C14         0.7296   -3.0756    1.6432 C.3       1 <0>        -0.1428
     20 C15         2.1347   -2.9893    1.0439 C.3       1 <0>        -0.1491
     21 H2          2.5313   -3.8820    0.5602 H         1 <0>         0.1085
     22 C16         3.1469   -2.1356    1.7634 C.2       1 <0>         0.5030
     23 O3          2.9487   -1.7975    2.9064 O.co2     1 <0>        -0.6327
     24 F1         -5.1598    7.7739    0.4105 F         1 <0>        -0.1393
     25 H3         -1.6014    6.5122   -2.0430 H         1 <0>         0.1394
     26 H4         -3.8084    7.5776   -1.8135 H         1 <0>         0.1410
     27 H5         -3.8244    6.6566    2.3546 H         1 <0>         0.1402
     28 H6         -1.6224    5.5805    2.1278 H         1 <0>         0.1366
     29 H7          1.9390    3.9580   -0.1325 H         1 <0>         0.1470
     30 H8          2.0111    1.4766   -0.1029 H         1 <0>         0.1675
     31 H9         -2.2680    1.4737   -0.0136 H         1 <0>         0.1606
     32 H10        -0.9104   -0.5864   -0.3743 H         1 <0>         0.4097
     33 H11         0.5373   -2.5149    2.5579 H         1 <0>         0.1032
     34 H12         0.2018   -4.0251    1.5538 H         1 <0>         0.0966
     35 O4          4.2686   -1.7507    1.1346 O.co2     1 <0>        -0.7622
@<TRIPOS>BOND
     1    1    6 ar
     2    1    2 ar
     3    1   25 1
     4    2    3 ar
     5    2   26 1
     6    3    4 ar
     7    3   24 1
     8    4    5 ar
     9    4   27 1
    10    5    6 ar
    11    5   28 1
    12    6    7 1
    13    7    8 1
    14    8   13 ar
    15    8    9 ar
    16    9   10 ar
    17    9   29 1
    18   10   11 ar
    19   10   30 1
    20   11   12 ar
    21   11   14 1
    22   12   13 ar
    23   12   31 1
    24   14   15 am
    25   14   32 1
    26   15   16 2
    27   15   17 1
    28   17   18 1
    29   17   20 1
    30   17   19 1
    31   19   20 1
    32   19   33 1
    33   19   34 1
    34   20   21 1
    35   20   22 1
    36   22   23 2
    37   22   35 1
@<TRIPOS>MOLECULE
ZINC06731696
   27    29     0     0     0
SMALL
USER_CHARGES

@<TRIPOS>ATOM
      1 C1          0.0043    1.3796    0.1755 C.ar      1 <0>        -0.1031
      2 C2          1.1741    2.0887   -0.0112 C.ar      1 <0>        -0.1141
      3 C3          2.3776    1.4106   -0.2041 C.ar      1 <0>         0.0664
      4 C4          2.3947    0.0169   -0.2073 C.ar      1 <0>        -0.1014
      5 C5          1.2151   -0.6868   -0.0186 C.ar      1 <0>         0.1336
      6 C6          0.0207   -0.0021    0.1725 C.ar      1 <0>        -0.1577
      7 N1          1.2270   -2.0853   -0.0214 N.am      1 <0>        -0.6632
      8 C7          2.2966   -2.7512    0.4573 C.2       1 <0>         0.5945
      9 O1          3.2104   -2.1397    0.9795 O.2       1 <0>        -0.4834
     10 C8          2.3593   -4.2104    0.3491 C.2       1 <0>        -0.2258
     11 C9          3.3545   -5.0768    0.7772 C.2       1 <0>        -0.0715
     12 C10         3.1305   -6.4101    0.5338 C.2       1 <0>        -0.1350
     13 C11         1.9845   -6.7828   -0.0910 C.2       1 <0>        -0.2317
     14 S1          1.1731   -5.3365   -0.3599 S.3       1 <0>         0.2578
     15 Br1         1.4257   -8.5307   -0.5474 Br        1 <0>         0.0421
     16 C12         3.6331    2.1689   -0.4055 C.2       1 <0>         0.0739
     17 N2          4.8495    1.6598   -0.6064 N.2       1 <0>        -0.3618
     18 N3          5.6667    2.6485   -0.7359 N.2       1 <0>        -0.1915
     19 N4          5.0168    3.7538   -0.6251 N.2       1 <0>        -0.1918
     20 N5          3.7692    3.4957   -0.4273 N.2       1 <0>        -0.3669
     21 H1         -0.9259    1.9066    0.3288 H         1 <0>         0.1245
     22 H2          1.1572    3.1685   -0.0081 H         1 <0>         0.1308
     23 H3          3.3238   -0.5131   -0.3566 H         1 <0>         0.1421
     24 H4         -0.8974   -0.5517    0.3193 H         1 <0>         0.1197
     25 H5          0.4654   -2.5761   -0.3678 H         1 <0>         0.4052
     26 H6          4.2488   -4.7253    1.2702 H         1 <0>         0.1612
     27 H7          3.8561   -7.1512    0.8350 H         1 <0>         0.1472
@<TRIPOS>BOND
     1    1    6 ar
     2    1    2 ar
     3    1   21 1
     4    2    3 ar
     5    2   22 1
     6    3    4 ar
     7    3   16 1
     8    4    5 ar
     9    4   23 1
    10    5    6 ar
    11    5    7 1
    12    6   24 1
    13    7    8 am
    14    7   25 1
    15    8    9 2
    16    8   10 1
    17   10   14 1
    18   10   11 2
    19   11   12 1
    20   11   26 1
    21   12   13 2
    22   12   27 1
    23   13   14 1
    24   13   15 1
    25   16   20 2
    26   16   17 1
    27   17   18 1
    28   18   19 2
    29   19   20 1
@<TRIPOS>MOLECULE
ZINC47522016
   33    34     0     0     0
SMALL
USER_CHARGES

@<TRIPOS>ATOM
      1 C1         -0.0173    1.4248    0.0099 C.3       1 <0>         0.0361
      2 O1          0.0021   -0.0041    0.0020 O.3       1 <0>        -0.3476
      3 C2          0.6007   -0.6020   -1.0468 C.2       1 <0>         0.5135
      4 O2          1.0927    0.0714   -1.9304 O.2       1 <0>        -0.4964
      5 C3          0.6586   -2.0729   -1.1220 C.ar      1 <0>        -0.1860
      6 C4          0.0889   -2.8516   -0.1108 C.ar      1 <0>         0.0522
      7 C5          0.1466   -4.2259   -0.1872 C.ar      1 <0>        -0.6417
      8 C6          0.7674   -4.8410   -1.2624 C.ar      1 <0>         0.0302
      9 C7          1.3343   -4.0842   -2.2684 C.ar      1 <0>        -0.1816
     10 C8          1.2804   -2.6994   -2.2113 C.ar      1 <0>         0.2116
     11 O3          1.8319   -1.9546   -3.2018 O.3       1 <0>        -0.4789
     12 S1         -0.5721   -5.2060    1.0885 S.o2      1 <0>         2.6063
     13 O4          0.0921   -6.4619    1.0587 O.2       1 <0>        -1.0197
     14 O5         -0.6110   -4.3923    2.2528 O.2       1 <0>        -1.0182
     15 N1         -2.1455   -5.4924    0.6585 N.2       1 <0>        -1.0778
     16 C9         -2.9697   -6.2527    1.4910 C.ar      1 <0>         0.3262
     17 C10        -2.4724   -6.7644    2.6826 C.ar      1 <0>        -0.3079
     18 C11        -3.2906   -7.5172    3.5058 C.ar      1 <0>         0.1751
     19 C12        -4.6043   -7.7612    3.1422 C.ar      1 <0>        -0.2935
     20 C13        -5.1020   -7.2524    1.9543 C.ar      1 <0>         0.1599
     21 C14        -4.2894   -6.4935    1.1313 C.ar      1 <0>        -0.2215
     22 F1         -6.3839   -7.4927    1.6016 F         1 <0>        -0.1467
     23 F2         -2.8074   -8.0152    4.6650 F         1 <0>        -0.1466
     24 H1          1.0053    1.8021    0.0021 H         1 <0>         0.0593
     25 H2         -0.5445    1.7859   -0.8732 H         1 <0>         0.0605
     26 H3         -0.5275    1.7763    0.9067 H         1 <0>         0.1038
     27 H4         -0.3955   -2.3765    0.7296 H         1 <0>         0.1573
     28 H5          0.8085   -5.9190   -1.3137 H         1 <0>         0.1510
     29 H6          1.8164   -4.5712   -3.1031 H         1 <0>         0.1459
     30 H7          2.7610   -1.7306   -3.0546 H         1 <0>         0.3988
     31 H8         -1.4477   -6.5749    2.9662 H         1 <0>         0.1159
     32 H9         -5.2415   -8.3495    3.7858 H         1 <0>         0.1281
     33 H10        -4.6793   -6.0928    0.2073 H         1 <0>         0.1324
@<TRIPOS>BOND
     1    1    2 1
     2    1   24 1
     3    1   25 1
     4    1   26 1
     5    2    3 1
     6    3    4 2
     7    3    5 1
     8    5   10 ar
     9    5    6 ar
    10    6    7 ar
    11    6   27 1
    12    7    8 ar
    13    7   12 1
    14    8    9 ar
    15    8   28 1
    16    9   10 ar
    17    9   29 1
    18   10   11 1
    19   11   30 1
    20   12   13 2
    21   12   14 2
    22   12   15 1
    23   15   16 1
    24   16   21 ar
    25   16   17 ar
    26   17   18 ar
    27   17   31 1
    28   18   19 ar
    29   18   23 1
    30   19   20 ar
    31   19   32 1
    32   20   21 ar
    33   20   22 1
    34   21   33 1
@<TRIPOS>MOLECULE
ZINC55311234
   41    42     0     0     0
SMALL
USER_CHARGES

@<TRIPOS>ATOM
      1 C1         -5.7649    0.2553   -0.7830 C.3       1 <0>        -0.1021
      2 C2         -4.6038    0.8222   -1.5586 C.2       1 <0>         0.0949
      3 C3         -3.3006    0.7093   -1.2154 C.2       1 <0>        -0.7685
      4 C4         -2.5538    1.3731   -2.1988 C.2       1 <0>        -0.1184
      5 C5         -3.4599    1.8680   -3.1120 C.2       1 <0>        -0.0431
      6 O1         -4.6959    1.5134   -2.7007 O.3       1 <0>        -0.1370
      7 C6         -3.1394    2.6344   -4.3141 C.2       1 <0>         0.5590
      8 O2         -1.9723    2.8899   -4.5846 O.co2     1 <0>        -0.6528
      9 O3         -4.0378    3.0214   -5.0514 O.co2     1 <0>        -0.6659
     10 S1         -2.6607   -0.1172    0.2031 S.o2      1 <0>         2.7205
     11 O4         -3.2777   -1.3967    0.2403 O.2       1 <0>        -0.9682
     12 O5         -1.2498    0.0475    0.1670 O.2       1 <0>        -0.9559
     13 N1         -3.1995    0.7070    1.5345 N.pl3     1 <0>        -1.1164
     14 C7         -2.7546    2.0820    1.7745 C.3       1 <0>         0.1304
     15 C8         -1.5650    2.0725    2.7368 C.3       1 <0>        -0.1345
     16 C9         -0.8546    3.4264    2.6825 C.3       1 <0>        -0.1230
     17 C10        -0.7112    3.8698    1.2254 C.3       1 <0>        -0.1365
     18 C11        -1.5786    5.1062    0.9806 C.3       1 <0>        -0.1196
     19 C12        -3.0462    4.6861    0.8767 C.3       1 <0>        -0.1366
     20 C13        -3.5900    4.3829    2.2742 C.3       1 <0>        -0.1242
     21 C14        -3.9005    2.8892    2.3883 C.3       1 <0>        -0.1232
     22 H1         -6.6998    0.5700   -1.2467 H         1 <0>         0.0891
     23 H2         -5.7066   -0.8332   -0.7853 H         1 <0>         0.1033
     24 H3         -5.7281    0.6189    0.2439 H         1 <0>         0.0897
     25 H4         -1.4794    1.4768   -2.2337 H         1 <0>         0.1621
     26 H5         -3.8098    0.2793    2.1555 H         1 <0>         0.4133
     27 H6         -2.4546    2.5368    0.8305 H         1 <0>         0.1116
     28 H7         -1.9195    1.8886    3.7510 H         1 <0>         0.0652
     29 H8         -0.8692    1.2852    2.4467 H         1 <0>         0.0762
     30 H9         -1.4386    4.1653    3.2313 H         1 <0>         0.0731
     31 H10         0.1335    3.3365    3.1338 H         1 <0>         0.0615
     32 H11         0.3317    4.1111    1.0200 H         1 <0>         0.0636
     33 H12        -1.0340    3.0634    0.5668 H         1 <0>         0.0752
     34 H13        -1.4581    5.8045    1.8089 H         1 <0>         0.0625
     35 H14        -1.2717    5.5874    0.0519 H         1 <0>         0.0641
     36 H15        -3.6247    5.4943    0.4292 H         1 <0>         0.0628
     37 H16        -3.1257    3.7946    0.2546 H         1 <0>         0.0724
     38 H17        -2.8452    4.6572    3.0212 H         1 <0>         0.0763
     39 H18        -4.5012    4.9571    2.4418 H         1 <0>         0.0619
     40 H19        -4.8259    2.6687    1.8563 H         1 <0>         0.0689
     41 H20        -4.0123    2.6205    3.4387 H         1 <0>         0.0683
@<TRIPOS>BOND
     1    1    2 1
     2    1   22 1
     3    1   23 1
     4    1   24 1
     5    2    6 1
     6    2    3 2
     7    3    4 1
     8    3   10 1
     9    4    5 2
    10    4   25 1
    11    5    6 1
    12    5    7 1
    13    7    8 2
    14    7    9 1
    15   10   11 2
    16   10   12 2
    17   10   13 1
    18   13   14 1
    19   13   26 1
    20   14   21 1
    21   14   15 1
    22   14   27 1
    23   15   16 1
    24   15   28 1
    25   15   29 1
    26   16   17 1
    27   16   30 1
    28   16   31 1
    29   17   18 1
    30   17   32 1
    31   17   33 1
    32   18   19 1
    33   18   34 1
    34   18   35 1
    35   19   20 1
    36   19   36 1
    37   19   37 1
    38   20   21 1
    39   20   38 1
    40   20   39 1
    41   21   40 1
    42   21   41 1
@<TRIPOS>MOLECULE
ZINC00753945
   37    39     0     0     0
SMALL
USER_CHARGES

@<TRIPOS>ATOM
      1 C1         -0.0187    1.5258    0.0104 C.3       1 <0>        -0.1475
      2 C2          0.0021   -0.0041    0.0020 C.3       1 <0>        -0.0874
      3 C3         -1.4117   -0.5257    0.0127 C.ar      1 <0>        -0.0440
      4 C4         -2.0507   -0.7660    1.2147 C.ar      1 <0>        -0.1438
      5 C5         -3.3476   -1.2445    1.2246 C.ar      1 <0>        -0.0165
      6 C6         -4.0056   -1.4822    0.0324 C.ar      1 <0>        -0.6178
      7 C7         -3.3670   -1.2410   -1.1697 C.ar      1 <0>        -0.0166
      8 C8         -2.0716   -0.7585   -1.1795 C.ar      1 <0>        -0.1437
      9 S1         -5.6582   -2.0932    0.0449 S.o2      1 <0>         2.6106
     10 O1         -5.8583   -2.7487   -1.1999 O.2       1 <0>        -1.0156
     11 O2         -5.8380   -2.7527    1.2907 O.2       1 <0>        -1.0156
     12 N1         -6.6660   -0.7792    0.0552 N.2       1 <0>        -0.8556
     13 N2         -7.9449   -0.9472    0.0654 N.2       1 <0>        -0.0806
     14 C9         -8.7441    0.0948    0.0736 C.2       1 <0>        -0.1207
     15 C10       -10.2255    0.0951    0.0917 C.ar      1 <0>        -0.0260
     16 C11       -11.1782   -0.9174    0.1039 C.ar      1 <0>        -0.0852
     17 C12       -12.5203   -0.5945    0.1196 C.ar      1 <0>        -0.1441
     18 C13       -12.9148    0.7330    0.1233 C.ar      1 <0>        -0.1169
     19 C14       -11.9767    1.7450    0.1109 C.ar      1 <0>        -0.1421
     20 C15       -10.6201    1.4391    0.0954 C.ar      1 <0>         0.1284
     21 N3         -9.4901    2.2485    0.0809 N.am      1 <0>        -0.6639
     22 C16        -8.3625    1.5174    0.0733 C.2       1 <0>         0.5455
     23 O3         -7.2260    1.9541    0.0646 O.2       1 <0>        -0.5185
     24 H1          1.0039    1.9031    0.0027 H         1 <0>         0.0572
     25 H2         -0.5459    1.8868   -0.8726 H         1 <0>         0.0578
     26 H3         -0.5289    1.8773    0.9072 H         1 <0>         0.0578
     27 H4          0.5123   -0.3556   -0.8948 H         1 <0>         0.0728
     28 H5          0.5293   -0.3651    0.8851 H         1 <0>         0.0729
     29 H6         -1.5366   -0.5803    2.1462 H         1 <0>         0.1261
     30 H7         -3.8465   -1.4329    2.1637 H         1 <0>         0.1370
     31 H8         -3.8810   -1.4271   -2.1011 H         1 <0>         0.1370
     32 H9         -1.5739   -0.5665   -2.1185 H         1 <0>         0.1261
     33 H10       -10.8696   -1.9523    0.1007 H         1 <0>         0.1236
     34 H11       -13.2635   -1.3781    0.1287 H         1 <0>         0.1174
     35 H12       -13.9665    0.9785    0.1356 H         1 <0>         0.1171
     36 H13       -12.2966    2.7766    0.1135 H         1 <0>         0.1148
     37 H14        -9.5126    3.2182    0.0800 H         1 <0>         0.3998
@<TRIPOS>BOND
     1    1    2 1
     2    1   24 1
     3    1   25 1
     4    1   26 1
     5    2    3 1
     6    2   27 1
     7    2   28 1
     8    3    8 ar
     9    3    4 ar
    10    4    5 ar
    11    4   29 1
    12    5    6 ar
    13    5   30 1
    14    6    7 ar
    15    6    9 1
    16    7    8 ar
    17    7   31 1
    18    8   32 1
    19    9   10 2
    20    9   11 2
    21    9   12 1
    22   12   13 1
    23   13   14 2
    24   14   22 1
    25   14   15 1
    26   15   20 ar
    27   15   16 ar
    28   16   17 ar
    29   16   33 1
    30   17   18 ar
    31   17   34 1
    32   18   19 ar
    33   18   35 1
    34   19   20 ar
    35   19   36 1
    36   20   21 1
    37   21   22 am
    38   21   37 1
    39   22   23 2
@<TRIPOS>MOLECULE
ZINC11567392
   39    42     0     0     0
SMALL
USER_CHARGES
3-(2-furyl)-1-methyl-6-(p-tolyl)pyrazolo[5,4-b]pyridine-4-carboxylic acid
@<TRIPOS>ATOM
      1 C1         -4.3257    8.4567   -1.9415 C.3       1 <0>        -0.1137
      2 C2         -3.1130    7.6185   -1.6289 C.ar      1 <0>        -0.0819
      3 C3         -1.9440    8.2275   -1.2093 C.ar      1 <0>        -0.1310
      4 C4         -0.8304    7.4649   -0.9212 C.ar      1 <0>        -0.0750
      5 C5         -0.8851    6.0785   -1.0542 C.ar      1 <0>        -0.0452
      6 C6         -2.0640    5.4707   -1.4829 C.ar      1 <0>        -0.0890
      7 C7         -3.1729    6.2430   -1.7631 C.ar      1 <0>        -0.1244
      8 C8          0.3083    5.2536   -0.7466 C.ar      1 <0>         0.2232
      9 C9          0.2354    3.8653   -0.8917 C.ar      1 <0>        -0.1761
     10 C10         1.3553    3.0926   -0.5978 C.ar      1 <0>         0.0276
     11 C11         2.5238    3.7589   -0.1736 C.ar      1 <0>        -0.1889
     12 C12         3.8647    3.3164    0.2120 C.2       1 <0>         0.1976
     13 N1          4.5594    4.3883    0.5208 N.2       1 <0>        -0.2277
     14 N2          3.7674    5.5300    0.3669 N.pl3     1 <0>        -0.3982
     15 C13         2.5164    5.1625   -0.0583 C.ar      1 <0>         0.3159
     16 N3          1.4196    5.8482   -0.3465 N.ar      1 <0>        -0.5081
     17 C14         4.2054    6.9047    0.6207 C.3       1 <0>         0.1198
     18 C15         4.3479    1.9215    0.2482 C.2       1 <0>         0.0785
     19 C16         5.5501    1.4810   -0.2111 C.2       1 <0>        -0.1770
     20 C17         5.5897    0.0917    0.0230 C.2       1 <0>        -0.2284
     21 C18         4.4228   -0.2436    0.6070 C.2       1 <0>        -0.0036
     22 O1          3.6773    0.8652    0.7469 O.3       1 <0>        -0.1331
     23 C19         1.3228    1.6209   -0.7319 C.2       1 <0>         0.4940
     24 O2          2.2633    1.0356   -1.2301 O.co2     1 <0>        -0.5992
     25 H1         -4.3100    8.7403   -2.9938 H         1 <0>         0.0692
     26 H2         -5.2282    7.8818   -1.7336 H         1 <0>         0.0657
     27 H3         -4.3163    9.3542   -1.3231 H         1 <0>         0.0644
     28 H4         -1.9028    9.3018   -1.1066 H         1 <0>         0.1216
     29 H5          0.0817    7.9415   -0.5937 H         1 <0>         0.1332
     30 H6         -2.1107    4.3973   -1.5920 H         1 <0>         0.1344
     31 H7         -4.0880    5.7729   -2.0917 H         1 <0>         0.1253
     32 H8         -0.6796    3.3976   -1.2242 H         1 <0>         0.1462
     33 H9          4.0062    7.1634    1.6606 H         1 <0>         0.0667
     34 H10         5.2743    6.9876    0.4240 H         1 <0>         0.0844
     35 H11         3.6616    7.5860   -0.0338 H         1 <0>         0.0870
     36 H12         6.3246    2.0799   -0.6669 H         1 <0>         0.1435
     37 H13         6.4018   -0.5775   -0.2199 H         1 <0>         0.1449
     38 H14         4.1360   -1.2381    0.9153 H         1 <0>         0.1979
     39 O3          0.2502    0.9289   -0.3016 O.co2     1 <0>        -0.7404
@<TRIPOS>BOND
     1    1    2 1
     2    1   25 1
     3    1   26 1
     4    1   27 1
     5    2    7 ar
     6    2    3 ar
     7    3    4 ar
     8    3   28 1
     9    4    5 ar
    10    4   29 1
    11    5    6 ar
    12    5    8 1
    13    6    7 ar
    14    6   30 1
    15    7   31 1
    16    8   16 ar
    17    8    9 ar
    18    9   10 ar
    19    9   32 1
    20   10   11 ar
    21   10   23 1
    22   11   15 ar
    23   11   12 1
    24   12   13 2
    25   12   18 1
    26   13   14 1
    27   14   15 1
    28   14   17 1
    29   15   16 ar
    30   17   33 1
    31   17   34 1
    32   17   35 1
    33   18   22 1
    34   18   19 2
    35   19   20 1
    36   19   36 1
    37   20   21 2
    38   20   37 1
    39   21   22 1
    40   21   38 1
    41   23   24 2
    42   23   39 1
@<TRIPOS>MOLECULE
ZINC28379881
   36    38     0     0     0
SMALL
USER_CHARGES
4-[(2,5-dimethoxyphenyl)methyleneamino]-5-(2-thienyl)-1,2,4-triazole-3-thiol
@<TRIPOS>ATOM
      1 C1         -0.0127    1.0858    0.0080 C.3       1 <0>         0.0253
      2 O1         -0.6816    1.5467    1.1837 O.3       1 <0>        -0.3162
      3 C2         -0.7875    2.8926    1.3463 C.ar      1 <0>         0.0798
      4 C3         -0.2517    3.7496    0.3935 C.ar      1 <0>        -0.1445
      5 C4         -0.3594    5.1185    0.5472 C.ar      1 <0>        -0.1818
      6 C5         -0.9935    5.6461    1.6600 C.ar      1 <0>         0.1469
      7 C6         -1.5313    4.7876    2.6282 C.ar      1 <0>        -0.0547
      8 C7         -1.4234    3.4047    2.4628 C.ar      1 <0>        -0.0728
      9 C8         -2.2077    5.3408    3.8146 C.2       1 <0>         0.1695
     10 N1         -2.3062    6.6263    3.9651 N.2       1 <0>        -0.1931
     11 N2         -2.9494    7.1523    5.0932 N.pl3     1 <0>        -0.3654
     12 C9         -2.3763    7.4755    6.3054 C.2       1 <0>         0.1839
     13 N3         -3.3395    7.9349    7.0754 N.2       1 <0>        -0.2532
     14 N4         -4.4556    7.9212    6.4389 N.2       1 <0>        -0.3284
     15 C10        -4.2784    7.4591    5.2216 C.2       1 <0>         0.3869
     16 S1         -5.5197    7.2662    3.9861 S.3       1 <0>        -0.7815
     17 C11        -0.9579    7.3329    6.6689 C.2       1 <0>        -0.0363
     18 C12        -0.2763    7.8831    7.7255 C.2       1 <0>        -0.1464
     19 C13         1.0640    7.6009    7.8655 C.2       1 <0>        -0.1432
     20 C14         1.6711    6.7993    6.9526 C.2       1 <0>        -0.1963
     21 S2          0.3267    6.4055    5.8460 S.3       1 <0>         0.0608
     22 O2         -1.0940    6.9924    1.8123 O.3       1 <0>        -0.2712
     23 C15        -0.5227    7.8059    0.7856 C.3       1 <0>         0.0213
     24 H1          0.0022   -0.0141    0.0020 H         1 <0>         0.0997
     25 H2          1.0193    1.4665    0.0002 H         1 <0>         0.0539
     26 H3         -0.5447    1.4502   -0.8832 H         1 <0>         0.0546
     27 H4          0.2479    3.3440   -0.4738 H         1 <0>         0.1321
     28 H5          0.0560    5.7788   -0.1997 H         1 <0>         0.1356
     29 H6         -1.8359    2.7369    3.2047 H         1 <0>         0.1449
     30 H7         -2.6292    4.6644    4.5728 H         1 <0>         0.1231
     31 H8         -0.7817    8.5221    8.4344 H         1 <0>         0.1414
     32 H9          1.6267    8.0155    8.6889 H         1 <0>         0.1339
     33 H10         2.7024    6.4820    6.9073 H         1 <0>         0.1834
     34 H11        -0.6735    8.8672    1.0323 H         1 <0>         0.1018
     35 H12        -1.0094    7.5799   -0.1746 H         1 <0>         0.0541
     36 H13         0.5545    7.5967    0.7089 H         1 <0>         0.0523
@<TRIPOS>BOND
     1    1    2 1
     2    1   24 1
     3    1   25 1
     4    1   26 1
     5    2    3 1
     6    3    8 ar
     7    3    4 ar
     8    4    5 ar
     9    4   27 1
    10    5    6 ar
    11    5   28 1
    12    6    7 ar
    13    6   22 1
    14    7    8 ar
    15    7    9 1
    16    8   29 1
    17    9   10 2
    18    9   30 1
    19   10   11 1
    20   11   15 1
    21   11   12 1
    22   12   13 2
    23   12   17 1
    24   13   14 1
    25   14   15 2
    26   15   16 1
    27   17   21 1
    28   17   18 2
    29   18   19 1
    30   18   31 1
    31   19   20 2
    32   19   32 1
    33   20   21 1
    34   20   33 1
    35   22   23 1
    36   23   34 1
    37   23   35 1
    38   23   36 1
@<TRIPOS>MOLECULE
ZINC39976390
   40    43     0     0     0
SMALL
USER_CHARGES

@<TRIPOS>ATOM
      1 C1         -0.0358    1.5601    0.0382 C.3       1 <0>        -0.1508
      2 C2         -0.0065    0.0304    0.0306 C.3       1 <0>        -0.0922
      3 C3         -1.4389   -0.5072    0.0349 C.3       1 <0>        -0.1334
      4 H1         -2.1777    0.1272    0.5246 H         1 <0>         0.1079
      5 C4         -1.8953   -1.3115   -1.1840 C.3       1 <0>        -0.1639
      6 C5         -1.6247   -2.0219    0.1446 C.3       1 <0>        -0.0872
      7 H2         -0.7264   -2.6355    0.2137 H         1 <0>         0.1347
      8 C6         -2.8154   -2.5225    0.9210 C.2       1 <0>         0.0406
      9 C7         -2.7610   -3.3046    2.0231 C.2       1 <0>        -0.2104
     10 C8         -4.0814   -3.5389    2.4317 C.2       1 <0>        -0.1509
     11 C9         -4.8946   -2.8708    1.5351 C.2       1 <0>        -0.0132
     12 O1         -4.0976   -2.2593    0.6334 O.3       1 <0>        -0.1563
     13 C10        -6.3042   -2.8311    1.5609 C.2       1 <0>         0.0329
     14 C11        -6.9888   -2.0344    0.6652 C.2       1 <0>         0.0076
     15 C12        -6.2767   -1.3399   -0.3649 C.1       1 <0>         0.2750
     16 N1         -5.7117   -0.7890   -1.1821 N.1       1 <0>        -0.4166
     17 C13        -8.4552   -1.8983    0.7693 C.ar      1 <0>         0.4252
     18 N2         -9.0847   -1.1320   -0.1067 N.ar      1 <0>        -0.5890
     19 C14       -10.4137   -0.9829   -0.0466 C.ar      1 <0>         0.3716
     20 C15       -11.1260   -1.6629    0.9735 C.ar      1 <0>        -0.2784
     21 C16       -12.5169   -1.5176    1.0511 C.ar      1 <0>         0.0162
     22 C17       -13.1332   -0.7159    0.1272 C.ar      1 <0>        -0.2478
     23 C18       -12.3776   -0.0760   -0.8490 C.ar      1 <0>         0.1582
     24 N3        -11.0731   -0.2161   -0.9169 N.ar      1 <0>        -0.4995
     25 C19       -10.4024   -2.4692    1.8835 C.ar      1 <0>         0.4828
     26 N4         -9.0910   -2.5572    1.7390 N.ar      1 <0>        -0.6267
     27 O2        -11.0370   -3.1375    2.8736 O.3       1 <0>        -0.6575
     28 H3          0.9847    1.9430    0.0351 H         1 <0>         0.0546
     29 H4         -0.5608    1.9178   -0.8475 H         1 <0>         0.0567
     30 H5         -0.5521    1.9091    0.9324 H         1 <0>         0.0555
     31 H6          0.5099   -0.3187   -0.8636 H         1 <0>         0.0649
     32 H7          0.5185   -0.3274    0.9163 H         1 <0>         0.0672
     33 H8         -2.9344   -1.2065   -1.4960 H         1 <0>         0.1076
     34 H9         -1.1751   -1.4576   -1.9890 H         1 <0>         0.1018
     35 H10        -1.8670   -3.6790    2.4994 H         1 <0>         0.1515
     36 H11        -4.4006   -4.1265    3.2798 H         1 <0>         0.1607
     37 H12        -6.8480   -3.4240    2.2814 H         1 <0>         0.1885
     38 H13       -13.0868   -2.0232    1.8167 H         1 <0>         0.1344
     39 H14       -14.2044   -0.5812    0.1568 H         1 <0>         0.1267
     40 H15       -12.8766    0.5532   -1.5712 H         1 <0>         0.1511
@<TRIPOS>BOND
     1    1    2 1
     2    1   28 1
     3    1   29 1
     4    1   30 1
     5    2    3 1
     6    2   31 1
     7    2   32 1
     8    3    4 1
     9    3    6 1
    10    3    5 1
    11    5    6 1
    12    5   33 1
    13    5   34 1
    14    6    7 1
    15    6    8 1
    16    8   12 1
    17    8    9 2
    18    9   10 1
    19    9   35 1
    20   10   11 2
    21   10   36 1
    22   11   12 1
    23   11   13 1
    24   13   14 2
    25   13   37 1
    26   14   15 1
    27   14   17 1
    28   15   16 3
    29   17   26 ar
    30   17   18 ar
    31   18   19 ar
    32   19   24 ar
    33   19   20 ar
    34   20   21 ar
    35   20   25 ar
    36   21   22 ar
    37   21   38 1
    38   22   23 ar
    39   22   39 1
    40   23   24 ar
    41   23   40 1
    42   25   26 ar
    43   25   27 1
@<TRIPOS>MOLECULE
ZINC20865726
   40    43     0     0     0
SMALL
USER_CHARGES

@<TRIPOS>ATOM
      1 C1         -0.0184    1.5028    0.0103 C.3       1 <0>        -0.0712
      2 C2          0.0021   -0.0041    0.0020 C.2       1 <0>        -0.0226
      3 C3         -1.0701   -0.8160    0.0025 C.2       1 <0>         0.0127
      4 N1         -0.6269   -2.0828   -0.0064 N.2       1 <0>        -0.4520
      5 C4          0.6857   -2.0679   -0.0123 C.2       1 <0>         0.2270
      6 O1          1.0985   -0.7884   -0.0131 O.3       1 <0>        -0.1965
      7 C5          1.5620   -3.2573   -0.0223 C.ar      1 <0>        -0.0478
      8 C6          1.0045   -4.5375   -0.0320 C.ar      1 <0>        -0.0297
      9 C7          1.8254   -5.6445   -0.0413 C.ar      1 <0>        -0.1515
     10 C8          3.2055   -5.4880   -0.0410 C.ar      1 <0>         0.1424
     11 C9          3.7639   -4.2163   -0.0313 C.ar      1 <0>        -0.2106
     12 C10         2.9499   -3.1042   -0.0278 C.ar      1 <0>        -0.0493
     13 O2          4.0111   -6.5815   -0.0496 O.3       1 <0>        -0.3143
     14 C11         5.4210   -6.3486   -0.0488 C.3       1 <0>         0.0250
     15 C12        -2.5129   -0.3807    0.0119 C.3       1 <0>        -0.0172
     16 S1         -3.0999   -0.1963   -1.6946 S.3       1 <0>        -0.0305
     17 C13        -4.7783    0.3093   -1.5156 C.2       1 <0>         0.1879
     18 N2         -5.4183    0.4979   -0.3237 N.2       1 <0>        -0.5773
     19 C14        -6.7138    0.8903   -0.6120 C.ar      1 <0>        -0.0368
     20 C15        -7.8240    1.2230    0.1423 C.ar      1 <0>         0.1338
     21 N3         -8.9522    1.5666   -0.4509 N.ar      1 <0>        -0.5132
     22 C16        -9.0740    1.6087   -1.7666 C.ar      1 <0>         0.0233
     23 C17        -8.0291    1.2955   -2.5899 C.ar      1 <0>        -0.1342
     24 C18        -6.8070    0.9241   -2.0178 C.ar      1 <0>         0.0377
     25 N4         -5.5984    0.5665   -2.5080 N.2       1 <0>        -0.5546
     26 H1          1.0042    1.8801    0.0026 H         1 <0>         0.0776
     27 H2         -0.5455    1.8639   -0.8728 H         1 <0>         0.0981
     28 H3         -0.5286    1.8543    0.9071 H         1 <0>         0.0915
     29 H4         -0.0685   -4.6600   -0.0319 H         1 <0>         0.1484
     30 H5          1.3949   -6.6350   -0.0484 H         1 <0>         0.1406
     31 H6          4.8375   -4.0988   -0.0308 H         1 <0>         0.1348
     32 H7          3.3849   -2.1157   -0.0252 H         1 <0>         0.1336
     33 H8          5.6952   -5.7758   -0.9347 H         1 <0>         0.0575
     34 H9          5.6963   -5.7891    0.8452 H         1 <0>         0.0572
     35 H10         5.9470   -7.3033   -0.0563 H         1 <0>         0.1010
     36 H11        -3.1153   -1.1308    0.5243 H         1 <0>         0.1035
     37 H12        -2.6012    0.5733    0.5316 H         1 <0>         0.1020
     38 H13        -7.7680    1.2014    1.2206 H         1 <0>         0.1327
     39 H14       -10.0203    1.8966   -2.2004 H         1 <0>         0.1331
     40 H15        -8.1443    1.3340   -3.6631 H         1 <0>         0.1075
@<TRIPOS>BOND
     1    1    2 1
     2    1   26 1
     3    1   27 1
     4    1   28 1
     5    2    6 1
     6    2    3 2
     7    3    4 1
     8    3   15 1
     9    4    5 2
    10    5    6 1
    11    5    7 1
    12    7   12 ar
    13    7    8 ar
    14    8    9 ar
    15    8   29 1
    16    9   10 ar
    17    9   30 1
    18   10   11 ar
    19   10   13 1
    20   11   12 ar
    21   11   31 1
    22   12   32 1
    23   13   14 1
    24   14   33 1
    25   14   34 1
    26   14   35 1
    27   15   16 1
    28   15   36 1
    29   15   37 1
    30   16   17 1
    31   17   18 1
    32   17   25 2
    33   18   19 1
    34   19   20 ar
    35   19   24 ar
    36   20   38 1
    37   20   21 ar
    38   21   22 ar
    39   22   39 1
    40   22   23 ar
    41   23   40 1
    42   23   24 ar
    43   24   25 1
@<TRIPOS>MOLECULE
ZINC08738903
   44    46     0     0     0
SMALL
USER_CHARGES

@<TRIPOS>ATOM
      1 C1         -0.0186    1.3444   -0.0308 C.2       1 <0>        -0.2172
      2 C2          1.3040    1.7592   -0.2270 C.2       1 <0>        -0.1886
      3 C3          2.0983    0.6377   -0.0507 C.2       1 <0>         0.0171
      4 O1          1.2848   -0.4005    0.2381 O.3       1 <0>        -0.1584
      5 C4          0.0131    0.0202    0.2509 C.2       1 <0>        -0.0334
      6 C5          3.5015    0.5892   -0.1547 C.2       1 <0>        -0.0708
      7 C6          4.1673   -0.6018    0.0471 C.2       1 <0>        -0.1308
      8 C7          5.5547   -0.6497   -0.0558 C.2       1 <0>         0.0236
      9 C8          6.2199   -1.8743    0.0368 C.2       1 <0>        -0.2563
     10 C9          7.6888   -1.9474    0.1406 C.2       1 <0>         0.5373
     11 N1          8.2635   -3.1588    0.2270 N.2       1 <0>        -0.6726
     12 C10         7.5586   -4.2622    0.2211 C.2       1 <0>         0.6358
     13 O2          8.2135   -5.4364    0.3120 O.3       1 <0>        -0.6539
     14 N2          6.2041   -4.2887    0.1290 N.am      1 <0>        -0.5662
     15 C11         5.4870   -3.1482    0.0414 C.2       1 <0>         0.5592
     16 O3          4.2719   -3.1744   -0.0358 O.2       1 <0>        -0.5261
     17 C12         5.5080   -5.5777    0.1310 C.3       1 <0>         0.1193
     18 C13         5.1668   -5.9709    1.5697 C.3       1 <0>        -0.0971
     19 C14         4.4508   -7.2970    1.5717 C.2       1 <0>        -0.1118
     20 C15         5.1539   -8.3661    1.7665 C.2       1 <0>        -0.1591
     21 C16         4.5852   -9.7547    1.7852 C.3       1 <0>        -0.0865
     22 C17         3.0673   -9.7001    1.9710 C.3       1 <0>        -0.1198
     23 C18         2.4908   -8.6980    0.9629 C.3       1 <0>        -0.1188
     24 C19         2.9660   -7.2952    1.3537 C.3       1 <0>        -0.0830
     25 O4          8.3661   -0.9326    0.1476 O.2       1 <0>        -0.5448
     26 H1         -0.9000    1.9659   -0.0887 H         1 <0>         0.1492
     27 H2          1.6393    2.7570   -0.4687 H         1 <0>         0.1523
     28 H3         -0.8490   -0.5979    0.4534 H         1 <0>         0.2023
     29 H4          4.0567    1.4846   -0.3925 H         1 <0>         0.1479
     30 H5          3.6122   -1.4971    0.2849 H         1 <0>         0.1639
     31 H6          6.1167    0.2600   -0.2072 H         1 <0>         0.1410
     32 H7          4.5898   -5.4958   -0.4507 H         1 <0>         0.0776
     33 H8          6.1513   -6.3387   -0.3108 H         1 <0>         0.0936
     34 H9          6.0849   -6.0529    2.1514 H         1 <0>         0.0749
     35 H10         4.5235   -5.2100    2.0115 H         1 <0>         0.0649
     36 H11         6.2161   -8.2518    1.9253 H         1 <0>         0.1077
     37 H12         4.8162  -10.2524    0.8433 H         1 <0>         0.0703
     38 H13         5.0298  -10.3163    2.6068 H         1 <0>         0.0671
     39 H14         2.6405  -10.6869    1.7917 H         1 <0>         0.0601
     40 H15         2.8337   -9.3753    2.9849 H         1 <0>         0.0618
     41 H16         2.8436   -8.9423   -0.0391 H         1 <0>         0.0642
     42 H17         1.4018   -8.7358    0.9905 H         1 <0>         0.0613
     43 H18         2.4665   -6.9831    2.2708 H         1 <0>         0.0700
     44 H19         2.7190   -6.5965    0.5544 H         1 <0>         0.0729
@<TRIPOS>BOND
     1    1    5 2
     2    1    2 1
     3    1   26 1
     4    2    3 2
     5    2   27 1
     6    3    4 1
     7    3    6 1
     8    4    5 1
     9    5   28 1
    10    6    7 2
    11    6   29 1
    12    7    8 1
    13    7   30 1
    14    8    9 2
    15    8   31 1
    16    9   15 1
    17    9   10 1
    18   10   11 1
    19   10   25 2
    20   11   12 2
    21   12   13 1
    22   12   14 1
    23   14   15 am
    24   14   17 1
    25   15   16 2
    26   17   18 1
    27   17   32 1
    28   17   33 1
    29   18   19 1
    30   18   34 1
    31   18   35 1
    32   19   24 1
    33   19   20 2
    34   20   21 1
    35   20   36 1
    36   21   22 1
    37   21   37 1
    38   21   38 1
    39   22   23 1
    40   22   39 1
    41   22   40 1
    42   23   24 1
    43   23   41 1
    44   23   42 1
    45   24   43 1
    46   24   44 1
@<TRIPOS>MOLECULE
ZINC05374557
   38    40     0     0     0
SMALL
USER_CHARGES
2-[[5-[3-(2-furyl)prop-2-enylidene]-4-oxo-thiazol-2-yl]-methyl-amino]benzoic acid
@<TRIPOS>ATOM
      1 C1          4.7207    0.6116   -0.0410 C.3       1 <0>         0.0848
      2 N1          3.6041   -0.3367   -0.0350 N.pl3     1 <0>        -0.4495
      3 C2          3.8535   -1.7047   -0.0452 C.ar      1 <0>         0.1393
      4 C3          3.9609   -2.3859   -1.2511 C.ar      1 <0>        -0.1138
      5 C4          4.2133   -3.7425   -1.2588 C.ar      1 <0>        -0.1179
      6 C5          4.3509   -4.4376   -0.0676 C.ar      1 <0>        -0.1213
      7 C6          4.2425   -3.7805    1.1383 C.ar      1 <0>        -0.0738
      8 C7          3.9924   -2.4057    1.1631 C.ar      1 <0>        -0.0916
      9 C8          3.8747   -1.6966    2.4493 C.2       1 <0>         0.4901
     10 O1          3.6568   -0.5012    2.4664 O.co2     1 <0>        -0.6221
     11 C9          2.3106    0.1254   -0.0193 C.2       1 <0>         0.5316
     12 N2          1.1880   -0.5742   -0.0124 N.2       1 <0>        -0.6588
     13 C10         0.0021   -0.0041    0.0020 C.2       1 <0>         0.5469
     14 O2         -1.0279   -0.6615    0.0079 O.2       1 <0>        -0.4803
     15 C11        -0.0179    1.4716    0.0101 C.2       1 <0>        -0.2014
     16 C12        -1.0883    2.3399    0.0202 C.2       1 <0>         0.0078
     17 C13        -0.8677    3.7251    0.0266 C.2       1 <0>        -0.1157
     18 C14        -1.9255    4.5831    0.0366 C.2       1 <0>        -0.0577
     19 C15        -1.7032    5.9790    0.0430 C.2       1 <0>         0.0087
     20 C16        -2.6771    6.9586    0.0532 C.2       1 <0>        -0.1815
     21 C17        -2.0046    8.1898    0.0565 C.2       1 <0>        -0.2165
     22 C18        -0.6796    7.9221    0.0485 C.2       1 <0>        -0.0283
     23 O3         -0.5015    6.5930    0.0462 O.3       1 <0>        -0.1657
     24 S1          1.7368    1.8167   -0.0048 S.3       1 <0>        -0.0650
     25 H1          5.0081    0.8409    0.9852 H         1 <0>         0.0913
     26 H2          5.5685    0.1713   -0.5659 H         1 <0>         0.0867
     27 H3          4.4165    1.5280   -0.5466 H         1 <0>         0.0767
     28 H4          3.8506   -1.8524   -2.1837 H         1 <0>         0.1210
     29 H5          4.2996   -4.2668   -2.1991 H         1 <0>         0.1235
     30 H6          4.5438   -5.5001   -0.0850 H         1 <0>         0.1232
     31 H7          4.3502   -4.3272    2.0635 H         1 <0>         0.1376
     32 H8         -2.0969    1.9537    0.0231 H         1 <0>         0.1512
     33 H9          0.1409    4.1112    0.0237 H         1 <0>         0.1259
     34 H10        -2.9341    4.1969    0.0395 H         1 <0>         0.1529
     35 H11        -3.7464    6.8065    0.0577 H         1 <0>         0.1537
     36 H12        -2.4604    9.1689    0.0636 H         1 <0>         0.1509
     37 H13         0.1089    8.6602    0.0485 H         1 <0>         0.2043
     38 O4          4.0088   -2.3737    3.6067 O.co2     1 <0>        -0.7470
@<TRIPOS>BOND
     1    1    2 1
     2    1   25 1
     3    1   26 1
     4    1   27 1
     5    2    3 1
     6    2   11 1
     7    3    8 ar
     8    3    4 ar
     9    4    5 ar
    10    4   28 1
    11    5    6 ar
    12    5   29 1
    13    6    7 ar
    14    6   30 1
    15    7    8 ar
    16    7   31 1
    17    8    9 1
    18    9   10 2
    19    9   38 1
    20   11   24 1
    21   11   12 2
    22   12   13 1
    23   13   14 2
    24   13   15 1
    25   15   16 2
    26   15   24 1
    27   16   17 1
    28   16   32 1
    29   17   18 2
    30   17   33 1
    31   18   19 1
    32   18   34 1
    33   19   23 1
    34   19   20 2
    35   20   21 1
    36   20   35 1
    37   21   22 2
    38   21   36 1
    39   22   23 1
    40   22   37 1
@<TRIPOS>MOLECULE
ZINC01231402
   29    31     0     0     0
SMALL
USER_CHARGES
(5E)-5-[[5-(2-chloro-4-nitro-phenyl)-2-furyl]methylene]-2-thioxo-thiazolidin-4-one
@<TRIPOS>ATOM
      1 C1          2.3902    1.4207   -0.0131 C.ar      1 <0>        -0.0465
      2 C2          2.4326    0.0557   -0.0208 C.ar      1 <0>        -0.0909
      3 C3          1.2360   -0.6827   -0.0134 C.ar      1 <0>         0.0717
      4 C4          0.0021   -0.0041    0.0020 C.ar      1 <0>        -0.0271
      5 C5         -0.0166    1.3746    0.0096 C.ar      1 <0>        -0.0399
      6 C6          1.1728    2.0855    0.0021 C.ar      1 <0>        -0.0012
      7 N1          1.1440    3.5654    0.0098 N.pl3     1 <0>        -0.0156
      8 O1         -0.0091    4.2016    0.0237 O.2       1 <0>        -0.1674
      9 O2          2.2715    4.2460    0.0027 O.3       1 <0>        -0.1685
     10 Cl1        -1.4862   -0.8978    0.0120 Cl        1 <0>        -0.0020
     11 C7          1.2726   -2.1443   -0.0211 C.2       1 <0>        -0.0459
     12 C8          2.0247   -2.9350   -0.9150 C.2       1 <0>        -0.1509
     13 C9          1.7947   -4.2393   -0.6029 C.2       1 <0>        -0.1827
     14 C10         0.8626   -4.2333    0.5294 C.2       1 <0>         0.0295
     15 O3          0.5996   -2.9410    0.8257 O.3       1 <0>        -0.0546
     16 C11         0.3512   -5.3458    1.1786 C.2       1 <0>        -0.0180
     17 C12        -0.5374   -5.1843    2.2542 C.2       1 <0>        -0.2042
     18 C13        -1.0599   -3.9272    2.8671 C.2       1 <0>         0.5069
     19 O4         -0.7375   -2.8305    2.4576 O.3       1 <0>        -0.4538
     20 N2         -1.8988   -4.0778    3.8800 N.2       1 <0>        -0.6355
     21 C14        -2.2280   -5.3113    4.3117 C.2       1 <0>         0.3738
     22 S1         -3.2765   -5.7383    5.5960 S.2       1 <0>        -0.5548
     23 S2         -1.3137   -6.3936    3.2285 S.3       1 <0>        -0.1002
     24 H1          3.3103    1.9862   -0.0192 H         1 <0>         0.1646
     25 H2          3.3837   -0.4558   -0.0330 H         1 <0>         0.1630
     26 H3         -0.9596    1.9011    0.0169 H         1 <0>         0.1679
     27 H4          2.6664   -2.5713   -1.7039 H         1 <0>         0.1548
     28 H5          2.2143   -5.1061   -1.0918 H         1 <0>         0.1601
     29 H6          0.6412   -6.3552    0.8516 H         1 <0>         0.1672
@<TRIPOS>BOND
     1    1    6 ar
     2    1    2 ar
     3    1   24 1
     4    2    3 ar
     5    2   25 1
     6    3    4 ar
     7    3   11 1
     8    4    5 ar
     9    4   10 1
    10    5    6 ar
    11    5   26 1
    12    6    7 1
    13    7    8 2
    14    7    9 1
    15   11   15 1
    16   11   12 2
    17   12   13 1
    18   12   27 1
    19   13   14 2
    20   13   28 1
    21   14   15 1
    22   14   16 1
    23   16   17 2
    24   16   29 1
    25   17   23 1
    26   17   18 1
    27   18   19 1
    28   18   20 2
    29   20   21 1
    30   21   22 2
    31   21   23 1
@<TRIPOS>MOLECULE
ZINC36611101
   35    37     0     0     0
SMALL
USER_CHARGES

@<TRIPOS>ATOM
      1 C1         -0.0184    1.5028    0.0103 C.3       1 <0>        -0.1213
      2 C2          0.0021   -0.0041    0.0020 C.ar      1 <0>        -0.0346
      3 C3          0.0057   -0.6879   -1.1986 C.ar      1 <0>        -0.1407
      4 C4          0.0245   -2.0747   -1.2057 C.ar      1 <0>         0.1453
      5 C5          0.0397   -2.7727   -0.0067 C.ar      1 <0>        -0.2048
      6 C6          0.0360   -2.0855    1.1915 C.ar      1 <0>        -0.0633
      7 C7          0.0229   -0.7017    1.1965 C.ar      1 <0>        -0.0771
      8 Cl1         0.0254    0.1598    2.7036 Cl        1 <0>        -0.0711
      9 O1          0.0277   -2.7492   -2.3857 O.3       1 <0>        -0.3038
     10 C8          0.0474   -4.1764   -2.3172 C.3       1 <0>         0.1409
     11 C9          0.0481   -4.7463   -3.7123 C.2       1 <0>        -0.0137
     12 C10         1.1452   -5.0336   -4.4433 C.2       1 <0>        -0.1745
     13 C11         0.6991   -5.5420   -5.6763 C.2       1 <0>        -0.1709
     14 C12        -0.6653   -5.5380   -5.6321 C.2       1 <0>         0.0540
     15 O2         -1.0426   -5.0572   -4.4302 O.3       1 <0>        -0.1411
     16 C13        -1.5628   -5.9837   -6.7014 C.2       1 <0>         0.1235
     17 N1         -2.8517   -5.9287   -6.5340 N.2       1 <0>        -0.1725
     18 N2         -3.7097   -6.3548   -7.5563 N.pl3     1 <0>        -0.3609
     19 C14        -3.3539   -6.8569   -8.7797 C.2       1 <0>         0.0527
     20 N3         -4.4554   -7.1282   -9.4228 N.2       1 <0>        -0.2735
     21 N4         -5.4750   -6.8351   -8.6976 N.2       1 <0>        -0.3428
     22 C15        -5.0781   -6.3616   -7.5383 C.2       1 <0>         0.4073
     23 S1         -6.1115   -5.8321   -6.2131 S.3       1 <0>        -0.7661
     24 H1          1.0042    1.8801    0.0026 H         1 <0>         0.0786
     25 H2         -0.5455    1.8639   -0.8728 H         1 <0>         0.0747
     26 H3         -0.5286    1.8543    0.9071 H         1 <0>         0.0763
     27 H4         -0.0064   -0.1428   -2.1309 H         1 <0>         0.1416
     28 H5          0.0540   -3.8526   -0.0102 H         1 <0>         0.1389
     29 H6          0.0477   -2.6285    2.1250 H         1 <0>         0.1368
     30 H7          0.9446   -4.5025   -1.7911 H         1 <0>         0.0997
     31 H8         -0.8352   -4.5267   -1.7820 H         1 <0>         0.0872
     32 H9          2.1725   -4.8981   -4.1390 H         1 <0>         0.1572
     33 H10         1.3164   -5.8716   -6.4989 H         1 <0>         0.1617
     34 H11        -1.1541   -6.3579   -7.6285 H         1 <0>         0.1529
     35 H12        -2.3476   -7.0012   -9.1443 H         1 <0>         0.2034
@<TRIPOS>BOND
     1    1    2 1
     2    1   24 1
     3    1   25 1
     4    1   26 1
     5    2    7 ar
     6    2    3 ar
     7    3    4 ar
     8    3   27 1
     9    4    5 ar
    10    4    9 1
    11    5    6 ar
    12    5   28 1
    13    6    7 ar
    14    6   29 1
    15    7    8 1
    16    9   10 1
    17   10   11 1
    18   10   30 1
    19   10   31 1
    20   11   15 1
    21   11   12 2
    22   12   13 1
    23   12   32 1
    24   13   14 2
    25   13   33 1
    26   14   15 1
    27   14   16 1
    28   16   17 2
    29   16   34 1
    30   17   18 1
    31   18   22 1
    32   18   19 1
    33   19   20 2
    34   19   35 1
    35   20   21 1
    36   21   22 2
    37   22   23 1
@<TRIPOS>MOLECULE
ZINC45021853
   30    31     0     0     0
SMALL
USER_CHARGES

@<TRIPOS>ATOM
      1 C1         -0.9795    3.2663    0.0291 C.3       1 <0>        -0.1169
      2 C2         -0.9679    1.8525   -0.4924 C.ar      1 <0>        -0.0593
      3 C3         -1.2604    1.6017   -1.8169 C.ar      1 <0>        -0.0568
      4 C4         -1.2502    0.3042   -2.2975 C.ar      1 <0>        -0.0467
      5 C5         -0.9464   -0.7507   -1.4545 C.ar      1 <0>        -0.0584
      6 C6         -0.6515   -0.5150   -0.1282 C.ar      1 <0>        -0.0833
      7 C7         -0.6551    0.7932    0.3629 C.ar      1 <0>         0.0490
      8 C8         -0.3356    1.0540    1.7799 C.2       1 <0>         0.0374
      9 C9         -0.8423    0.3631    2.8592 C.2       1 <0>        -0.1490
     10 C10        -0.2825    0.9306    4.0061 C.2       1 <0>        -0.1976
     11 C11         0.5494    1.9520    3.5818 C.2       1 <0>         0.1122
     12 O1          0.5033    2.0018    2.2338 O.3       1 <0>        -0.0875
     13 C12         1.3173    2.7931    4.4147 C.2       1 <0>        -0.1055
     14 C13         2.5648    3.1797    4.0279 C.2       1 <0>        -0.1047
     15 C14         3.2027    2.5279    2.9565 C.2       1 <0>         0.4316
     16 O2          2.6397    1.4565    2.3978 O.co2     1 <0>        -0.6779
     17 O3          4.3700    2.9817    2.5002 O.co2     1 <0>        -0.7006
     18 Br1        -2.0636   -1.0793    2.7990 Br        1 <0>        -0.0267
     19 N1         -1.5662    0.0431   -3.7199 N.pl3     1 <0>         0.0387
     20 O4         -1.8324    0.9623   -4.4586 O.2       1 <0>        -0.1645
     21 O5         -1.5581   -1.0895   -4.1428 O.3       1 <0>        -0.1635
     22 H1          0.0319    3.6719    0.0021 H         1 <0>         0.0882
     23 H2         -1.6329    3.8778   -0.5932 H         1 <0>         0.0751
     24 H3         -1.3459    3.2719    1.0557 H         1 <0>         0.0753
     25 H4         -1.4984    2.4200   -2.4803 H         1 <0>         0.1558
     26 H5         -0.9407   -1.7609   -1.8364 H         1 <0>         0.1570
     27 H6         -0.4150   -1.3391    0.5285 H         1 <0>         0.1523
     28 H7         -0.4642    0.6305    5.0275 H         1 <0>         0.1557
     29 H8          0.9160    3.1304    5.3589 H         1 <0>         0.1465
     30 H9          3.0643    3.9865    4.5435 H         1 <0>         0.1243
@<TRIPOS>BOND
     1    1    2 1
     2    1   22 1
     3    1   23 1
     4    1   24 1
     5    2    7 ar
     6    2    3 ar
     7    3    4 ar
     8    3   25 1
     9    4    5 ar
    10    4   19 1
    11    5    6 ar
    12    5   26 1
    13    6    7 ar
    14    6   27 1
    15    7    8 1
    16    8   12 1
    17    8    9 2
    18    9   10 1
    19    9   18 1
    20   10   11 2
    21   10   28 1
    22   11   12 1
    23   11   13 1
    24   13   14 2
    25   13   29 1
    26   14   15 1
    27   14   30 1
    28   15   16 2
    29   15   17 1
    30   19   20 2
    31   19   21 1
@<TRIPOS>MOLECULE
ZINC06733038
   44    47     0     0     0
SMALL
USER_CHARGES

@<TRIPOS>ATOM
      1 C1         -0.0178    1.4608    0.0101 C.3       1 <0>         0.0987
      2 N1          0.0021   -0.0041    0.0020 N.pl3     1 <0>        -0.6410
      3 C2          1.2806   -0.7192   -0.0140 C.3       1 <0>         0.0947
      4 C3         -1.1953   -0.7173    0.0096 C.ar      1 <0>         0.2147
      5 C4         -1.1752   -2.1080    0.0077 C.ar      1 <0>        -0.2095
      6 C5         -2.3576   -2.8151    0.0152 C.ar      1 <0>        -0.0240
      7 C6         -3.5756   -2.1351    0.0247 C.ar      1 <0>        -0.0760
      8 C7         -3.5934   -0.7403    0.0266 C.ar      1 <0>        -0.0281
      9 C8         -2.4085   -0.0373    0.0249 C.ar      1 <0>        -0.2083
     10 C9         -4.8486   -2.8934    0.0323 C.ar      1 <0>         0.4091
     11 N2         -4.8103   -4.2190    0.0299 N.ar      1 <0>        -0.6056
     12 C10        -5.9327   -4.9299    0.0361 C.ar      1 <0>         0.4637
     13 O1         -5.8887   -6.2846    0.0336 O.3       1 <0>        -0.6891
     14 C11        -7.1536   -4.2637    0.0458 C.ar      1 <0>        -0.3700
     15 C12        -8.4380   -5.0416    0.0533 C.3       1 <0>         0.0109
     16 C13        -9.5887   -4.1601   -0.3527 C.ar      1 <0>        -0.0948
     17 C14       -10.7794   -4.7431   -0.7538 C.ar      1 <0>        -0.1247
     18 C15       -11.8501   -3.9559   -1.1301 C.ar      1 <0>        -0.1059
     19 C16       -11.7375   -2.5779   -1.1078 C.ar      1 <0>        -0.1925
     20 C17       -10.5511   -1.9878   -0.7078 C.ar      1 <0>         0.1127
     21 C18        -9.4690   -2.7824   -0.3282 C.ar      1 <0>         0.0989
     22 O2         -8.3152   -2.1846    0.0588 O.3       1 <0>        -0.2317
     23 C19        -7.1573   -2.8768    0.0487 C.ar      1 <0>         0.3652
     24 N3         -5.9958   -2.2284    0.0468 N.ar      1 <0>        -0.6014
     25 O3        -10.4403   -0.6327   -0.6843 O.3       1 <0>        -0.3036
     26 C20       -11.5875    0.1190   -1.0853 C.3       1 <0>         0.0277
     27 H1          1.0048    1.8381    0.0023 H         1 <0>         0.0676
     28 H2         -0.5450    1.8219   -0.8730 H         1 <0>         0.0522
     29 H3         -0.5280    1.8123    0.9069 H         1 <0>         0.0524
     30 H4          1.6074   -0.9021    1.0096 H         1 <0>         0.0448
     31 H5          1.1583   -1.6705   -0.5318 H         1 <0>         0.0697
     32 H6          2.0272   -0.1171   -0.5318 H         1 <0>         0.0613
     33 H7         -0.2320   -2.6340   -0.0000 H         1 <0>         0.1209
     34 H8         -2.3415   -3.8950    0.0133 H         1 <0>         0.1382
     35 H9         -4.5353   -0.2118    0.0337 H         1 <0>         0.1354
     36 H10        -2.4217    1.0426    0.0308 H         1 <0>         0.1186
     37 H11        -8.3587   -5.8751   -0.6447 H         1 <0>         0.0839
     38 H12        -8.6180   -5.4305    1.0555 H         1 <0>         0.0728
     39 H13       -10.8712   -5.8190   -0.7721 H         1 <0>         0.1294
     40 H14       -12.7756   -4.4169   -1.4421 H         1 <0>         0.1264
     41 H15       -12.5746   -1.9624   -1.4026 H         1 <0>         0.1333
     42 H16       -12.4247   -0.1177   -0.4288 H         1 <0>         0.0526
     43 H17       -11.3648    1.1841   -1.0205 H         1 <0>         0.0980
     44 H18       -11.8480   -0.1358   -2.1126 H         1 <0>         0.0527
@<TRIPOS>BOND
     1    1    2 1
     2    1   27 1
     3    1   28 1
     4    1   29 1
     5    2    3 1
     6    2    4 1
     7    3   30 1
     8    3   31 1
     9    3   32 1
    10    4    9 ar
    11    4    5 ar
    12    5    6 ar
    13    5   33 1
    14    6    7 ar
    15    6   34 1
    16    7    8 ar
    17    7   10 1
    18    8    9 ar
    19    8   35 1
    20    9   36 1
    21   10   11 ar
    22   10   24 ar
    23   11   12 ar
    24   12   14 ar
    25   12   13 1
    26   14   23 ar
    27   14   15 1
    28   15   16 1
    29   15   37 1
    30   15   38 1
    31   16   21 ar
    32   16   17 ar
    33   17   18 ar
    34   17   39 1
    35   18   19 ar
    36   18   40 1
    37   19   20 ar
    38   19   41 1
    39   20   21 ar
    40   20   25 1
    41   21   22 1
    42   22   23 1
    43   23   24 ar
    44   25   26 1
    45   26   42 1
    46   26   43 1
    47   26   44 1
@<TRIPOS>MOLECULE
ZINC11758903
   27    29     0     0     0
SMALL
USER_CHARGES
1-(3-bromophenyl)-5-(2-furyl)triazole-4-carboxylic acid
@<TRIPOS>ATOM
      1 C1         -2.2134    4.0549    3.4684 C.ar      1 <0>        -0.0916
      2 C2         -2.2957    3.0484    2.5259 C.ar      1 <0>        -0.0970
      3 C3         -3.4474    2.9048    1.7638 C.ar      1 <0>         0.1592
      4 C4         -4.5181    3.7674    1.9593 C.ar      1 <0>        -0.0781
      5 C5         -4.4320    4.7691    2.9072 C.ar      1 <0>        -0.0762
      6 C6         -3.2804    4.9125    3.6613 C.ar      1 <0>        -0.0909
      7 Br1        -5.8889    5.9445    3.1746 Br        1 <0>        -0.0400
      8 N1         -3.5315    1.8883    0.8036 N.pl3     1 <0>        -0.3304
      9 C7         -2.5131    1.4182    0.0200 C.2       1 <0>         0.1424
     10 C8         -3.0683    0.4111   -0.7716 C.2       1 <0>        -0.0191
     11 N2         -4.3706    0.3065   -0.4581 N.2       1 <0>        -0.1799
     12 N3         -4.6757    1.1571    0.4567 N.2       1 <0>        -0.0746
     13 C9         -2.3544   -0.3924   -1.7717 C.2       1 <0>         0.5269
     14 O1         -1.1693   -0.2048   -1.9689 O.co2     1 <0>        -0.6116
     15 C10        -1.1187    1.8755    0.0168 C.2       1 <0>         0.0204
     16 C11        -0.0126    1.0758    0.0080 C.2       1 <0>        -0.0959
     17 C12         1.1040    1.9302    0.0019 C.2       1 <0>        -0.2140
     18 C13         0.6353    3.1958    0.0132 C.2       1 <0>        -0.0345
     19 O2         -0.7059    3.1590    0.0258 O.3       1 <0>        -0.1731
     20 H1         -1.3162    4.1691    4.0587 H         1 <0>         0.1436
     21 H2         -1.4633    2.3761    2.3790 H         1 <0>         0.1376
     22 H3         -5.4170    3.6552    1.3714 H         1 <0>         0.1466
     23 H4         -3.2154    5.6956    4.4022 H         1 <0>         0.1399
     24 H5          0.0021   -0.0041    0.0020 H         1 <0>         0.1607
     25 H6          2.1415    1.6303   -0.0093 H         1 <0>         0.1518
     26 H7          1.2401    4.0906    0.0127 H         1 <0>         0.2034
     27 O3         -3.0130   -1.3384   -2.4717 O.co2     1 <0>        -0.7255
@<TRIPOS>BOND
     1    1    6 ar
     2    1    2 ar
     3    1   20 1
     4    2    3 ar
     5    2   21 1
     6    3    4 ar
     7    3    8 1
     8    4    5 ar
     9    4   22 1
    10    5    6 ar
    11    5    7 1
    12    6   23 1
    13    8   12 1
    14    8    9 1
    15    9   10 2
    16    9   15 1
    17   10   11 1
    18   10   13 1
    19   11   12 2
    20   13   14 2
    21   13   27 1
    22   15   19 1
    23   15   16 2
    24   16   17 1
    25   16   24 1
    26   17   18 2
    27   17   25 1
    28   18   19 1
    29   18   26 1
@<TRIPOS>MOLECULE
ZINC37985852
   28    29     0     0     0
SMALL
USER_CHARGES

@<TRIPOS>ATOM
      1 C1         -0.0173    1.4248    0.0099 C.3       1 <0>         0.0372
      2 O1          0.0021   -0.0041    0.0020 O.3       1 <0>        -0.3569
      3 C2         -1.1902   -0.6322    0.0100 C.2       1 <0>         0.5178
      4 O2         -2.2182    0.0157    0.0233 O.2       1 <0>        -0.5366
      5 C3         -1.2474   -2.1048    0.0027 C.ar      1 <0>        -0.2483
      6 C4         -0.0652   -2.8520   -0.0068 C.ar      1 <0>        -0.0165
      7 C5         -0.1219   -4.2219   -0.0131 C.ar      1 <0>        -0.1943
      8 C6         -1.3546   -4.8693   -0.0107 C.ar      1 <0>         0.3186
      9 C7         -2.5335   -4.1284   -0.0013 C.ar      1 <0>        -0.2807
     10 C8         -2.4839   -2.7583    0.0110 C.ar      1 <0>         0.0108
     11 N1         -1.4086   -6.2583   -0.0180 N.2       1 <0>        -1.0734
     12 S1         -2.8737   -7.0301   -0.0151 S.o2      1 <0>         2.6381
     13 O3         -3.4836   -6.7389    1.2349 O.2       1 <0>        -1.0059
     14 O4         -3.4959   -6.7252   -1.2557 O.2       1 <0>        -1.0095
     15 C9         -2.5502   -8.7621   -0.0262 C.2       1 <0>        -0.7248
     16 C10        -2.3915   -9.6205    1.0127 C.2       1 <0>         0.1611
     17 N2         -2.1559  -10.8834    0.7144 N.2       1 <0>        -0.5234
     18 C11        -2.0794  -11.2863   -0.5305 C.2       1 <0>         0.0675
     19 S2         -2.3482   -9.8753   -1.4077 S.3       1 <0>         0.2976
     20 Cl1        -1.7803  -12.8881   -1.1294 Cl        1 <0>         0.0536
     21 H1          1.0053    1.8021    0.0021 H         1 <0>         0.0945
     22 H2         -0.5445    1.7859   -0.8732 H         1 <0>         0.0545
     23 H3         -0.5275    1.7763    0.9067 H         1 <0>         0.0545
     24 H4          0.8913   -2.3506   -0.0094 H         1 <0>         0.1223
     25 H5          0.7906   -4.7996   -0.0204 H         1 <0>         0.1228
     26 H6         -3.4881   -4.6336    0.0007 H         1 <0>         0.1066
     27 H7         -3.3986   -2.1842    0.0227 H         1 <0>         0.1193
     28 H8         -2.4549   -9.2847    2.0372 H         1 <0>         0.1933
@<TRIPOS>BOND
     1    1    2 1
     2    1   21 1
     3    1   22 1
     4    1   23 1
     5    2    3 1
     6    3    4 2
     7    3    5 1
     8    5   10 ar
     9    5    6 ar
    10    6    7 ar
    11    6   24 1
    12    7    8 ar
    13    7   25 1
    14    8    9 ar
    15    8   11 1
    16    9   10 ar
    17    9   26 1
    18   10   27 1
    19   11   12 1
    20   12   13 2
    21   12   14 2
    22   12   15 1
    23   15   19 1
    24   15   16 2
    25   16   17 1
    26   16   28 1
    27   17   18 2
    28   18   19 1
    29   18   20 1
@<TRIPOS>MOLECULE
ZINC48069513
   28    29     0     0     0
SMALL
USER_CHARGES

@<TRIPOS>ATOM
      1 C1         -0.0634    1.4612    0.0117 C.3       1 <0>         0.0940
      2 N1         -0.0167   -0.0030    0.0029 N.am      1 <0>        -0.6119
      3 C2          0.1224   -0.7390    1.2620 C.3       1 <0>         0.1998
      4 C3         -1.2440   -1.0373    1.8231 C.2       1 <0>        -0.1353
      5 C4         -2.0346   -2.1187    1.6154 C.2       1 <0>        -0.1301
      6 C5         -3.2654   -2.1797    2.2424 C.2       1 <0>        -0.1120
      7 C6         -3.6448   -1.1559    3.0463 C.2       1 <0>        -0.1519
      8 S1         -2.2382   -0.0617    2.9398 S.3       1 <0>         0.0672
      9 Br1        -4.4025   -3.6681    1.9822 Br        1 <0>        -0.0429
     10 C7         -0.1016   -0.6730   -1.1634 C.2       1 <0>         0.6118
     11 O1         -0.1598   -1.8886   -1.1640 O.2       1 <0>        -0.5584
     12 C8         -0.1239    0.0629   -2.4320 C.2       1 <0>        -0.0992
     13 C9         -0.3270   -0.4773   -3.6841 C.2       1 <0>        -0.1203
     14 C10        -0.2692    0.5771   -4.6008 C.2       1 <0>        -0.1879
     15 C11        -0.0369    1.7177   -3.9081 C.2       1 <0>         0.0287
     16 N2          0.0483    1.4196   -2.5887 N.2       1 <0>        -0.4917
     17 N3         -0.4321    0.4663   -6.0678 N.pl3     1 <0>         0.0878
     18 O2         -0.6361   -0.6127   -6.5735 O.2       1 <0>        -0.2300
     19 O3         -0.3611    1.4548   -6.7602 O.3       1 <0>        -0.2287
     20 H1          0.9350    1.8577   -0.1729 H         1 <0>         0.0564
     21 H2         -0.7418    1.8077   -0.7679 H         1 <0>         0.0986
     22 H3         -0.4182    1.8076    0.9824 H         1 <0>         0.0468
     23 H4          0.6524   -1.6739    1.0797 H         1 <0>         0.1059
     24 H5          0.6843   -0.1359    1.9752 H         1 <0>         0.0916
     25 H6         -1.7081   -2.9204    0.9696 H         1 <0>         0.1483
     26 H7         -4.5589   -1.0357    3.6089 H         1 <0>         0.1926
     27 H8         -0.4982   -1.5187   -3.9137 H         1 <0>         0.1224
     28 H9          0.0604    2.7041   -4.3368 H         1 <0>         0.1484
@<TRIPOS>BOND
     1    1    2 1
     2    1   20 1
     3    1   21 1
     4    1   22 1
     5    2    3 1
     6    2   10 am
     7    3    4 1
     8    3   23 1
     9    3   24 1
    10    4    8 1
    11    4    5 2
    12    5    6 1
    13    5   25 1
    14    6    7 2
    15    6    9 1
    16    7    8 1
    17    7   26 1
    18   10   11 2
    19   10   12 1
    20   12   16 1
    21   12   13 2
    22   13   14 1
    23   13   27 1
    24   14   15 2
    25   14   17 1
    26   15   16 1
    27   15   28 1
    28   17   18 2
    29   17   19 1
@<TRIPOS>MOLECULE
ZINC59334544
   36    37     0     0     0
SMALL
USER_CHARGES

@<TRIPOS>ATOM
      1 C1          0.1858    1.4145    0.0712 C.3       1 <0>         0.0873
      2 N1          0.0306   -0.0394   -0.0208 N.am      1 <0>        -0.6164
      3 C2          0.1609   -0.8674    1.1807 C.3       1 <0>         0.0650
      4 C3         -0.2320   -0.6152   -1.2107 C.2       1 <0>         0.5789
      5 O1         -0.2258    0.0558   -2.2258 O.2       1 <0>        -0.5348
      6 C4         -0.5259   -2.0526   -1.2822 C.2       1 <0>        -0.1523
      7 C5         -0.6521   -2.6737   -2.5149 C.2       1 <0>         0.1044
      8 C6         -0.9335   -4.0502   -2.5834 C.2       1 <0>        -0.0707
      9 C7         -1.0792   -4.7937   -3.7450 C.2       1 <0>        -0.1049
     10 C8         -1.3489   -6.1047   -3.3530 C.2       1 <0>        -0.2190
     11 C9         -1.3592   -6.1195   -1.9741 C.2       1 <0>         0.1141
     12 O2         -1.1026   -4.8767   -1.5301 O.3       1 <0>        -0.1510
     13 C10        -1.6051   -7.3020   -1.1280 C.ar      1 <0>        -0.0547
     14 C11        -1.8500   -8.5463   -1.7193 C.ar      1 <0>        -0.0960
     15 C12        -2.0781   -9.6432   -0.9397 C.ar      1 <0>        -0.0781
     16 C13        -2.0675   -9.5285    0.4549 C.ar      1 <0>        -0.1019
     17 C14        -1.8225   -8.2862    1.0528 C.ar      1 <0>        -0.0098
     18 C15        -1.5876   -7.1805    0.2647 C.ar      1 <0>        -0.0971
     19 Cl1        -1.8088   -8.1406    2.7827 Cl        1 <0>        -0.0346
     20 C16        -2.3145  -10.7141    1.2937 C.2       1 <0>         0.5137
     21 O3         -2.5288  -11.7992    0.7711 O.co2     1 <0>        -0.6830
     22 O4         -2.3052  -10.6136    2.5128 O.co2     1 <0>        -0.6542
     23 C17        -0.6819   -2.8122   -0.0784 C.1       1 <0>         0.2498
     24 N2         -0.8056   -3.4149    0.8766 N.1       1 <0>        -0.4020
     25 H1          1.2322    1.6786   -0.0818 H         1 <0>         0.0578
     26 H2         -0.4256    1.8942   -0.6932 H         1 <0>         0.0788
     27 H3         -0.1339    1.7523    1.0570 H         1 <0>         0.0710
     28 H4         -0.8280   -1.0674    1.5932 H         1 <0>         0.0619
     29 H5          0.6441   -1.8096    0.9220 H         1 <0>         0.0784
     30 H6          0.7637   -0.3413    1.9210 H         1 <0>         0.0787
     31 H7         -0.5345   -2.1008   -3.4229 H         1 <0>         0.1830
     32 H8         -0.9994   -4.4279   -4.7580 H         1 <0>         0.1663
     33 H9         -1.5176   -6.9485   -4.0057 H         1 <0>         0.1631
     34 H10        -1.8590   -8.6389   -2.7952 H         1 <0>         0.1297
     35 H11        -2.2674  -10.6016   -1.4001 H         1 <0>         0.1444
     36 H12        -1.3942   -6.2214    0.7219 H         1 <0>         0.1340
@<TRIPOS>BOND
     1    1    2 1
     2    1   25 1
     3    1   26 1
     4    1   27 1
     5    2    3 1
     6    2    4 am
     7    3   28 1
     8    3   29 1
     9    3   30 1
    10    4    5 2
    11    4    6 1
    12    6    7 2
    13    6   23 1
    14    7    8 1
    15    7   31 1
    16    8   12 1
    17    8    9 2
    18    9   10 1
    19    9   32 1
    20   10   11 2
    21   10   33 1
    22   11   12 1
    23   11   13 1
    24   13   18 ar
    25   13   14 ar
    26   14   15 ar
    27   14   34 1
    28   15   16 ar
    29   15   35 1
    30   16   17 ar
    31   16   20 1
    32   17   18 ar
    33   17   19 1
    34   18   36 1
    35   20   21 2
    36   20   22 1
    37   23   24 3
@<TRIPOS>MOLECULE
ZINC64919948
   37    39     0     0     0
SMALL
USER_CHARGES

@<TRIPOS>ATOM
      1 C1         -0.0184    1.5028    0.0103 C.3       1 <0>        -0.1058
      2 C2          0.0021   -0.0041    0.0020 C.ar      1 <0>        -0.0552
      3 C3          0.0057   -0.6882   -1.2000 C.ar      1 <0>        -0.2187
      4 C4          0.0240   -2.0707   -1.2121 C.ar      1 <0>        -0.0695
      5 C5          0.0391   -2.7732   -0.0230 C.ar      1 <0>        -0.2668
      6 C6          0.0360   -2.0893    1.1859 C.ar      1 <0>         0.2806
      7 C7          0.0228   -0.7000    1.1944 C.ar      1 <0>        -0.1491
      8 C8          0.0251    0.0464    2.5036 C.3       1 <0>        -0.0803
      9 N1          0.0513   -2.7965    2.3902 N.2       1 <0>        -1.0792
     10 S1          0.0732   -4.4524    2.3779 S.o2      1 <0>         2.6211
     11 O1         -1.1695   -4.8709    1.8301 O.2       1 <0>        -1.0142
     12 O2          1.3210   -4.8378    1.8179 O.2       1 <0>        -1.0183
     13 C9          0.0885   -4.9857    4.0572 C.2       1 <0>        -0.6429
     14 C10        -0.9619   -5.2631    4.8730 C.2       1 <0>        -0.0557
     15 C11        -0.7216   -5.6702    6.1648 C.2       1 <0>        -0.0959
     16 C12         0.5904   -5.7822    6.5859 C.2       1 <0>        -0.1286
     17 S2          1.4880   -5.3069    5.1175 S.3       1 <0>         0.2301
     18 C13         1.1110   -6.1910    7.8990 C.2       1 <0>         0.2601
     19 N2          0.3976   -6.5421    8.9468 N.2       1 <0>        -0.2631
     20 N3          1.1882   -6.8357    9.9185 N.2       1 <0>        -0.2831
     21 C14         2.4250   -6.6860    9.5360 C.2       1 <0>         0.1641
     22 O3          2.4097   -6.2818    8.2528 O.3       1 <0>        -0.2180
     23 C15         3.6515   -6.9283   10.3775 C.3       1 <0>        -0.0577
     24 H1          1.0042    1.8801    0.0026 H         1 <0>         0.0596
     25 H2         -0.5455    1.8639   -0.8728 H         1 <0>         0.0547
     26 H3         -0.5286    1.8543    0.9071 H         1 <0>         0.0616
     27 H4         -0.0061   -0.1414   -2.1312 H         1 <0>         0.1006
     28 H5          0.0260   -2.6019   -2.1525 H         1 <0>         0.1011
     29 H6          0.0530   -3.8531   -0.0331 H         1 <0>         0.0952
     30 H7         -1.0019    0.2123    2.8290 H         1 <0>         0.0465
     31 H8          0.5541   -0.5398    3.2551 H         1 <0>         0.0706
     32 H9          0.5247    1.0064    2.3736 H         1 <0>         0.0400
     33 H10        -1.9748   -5.1646    4.5113 H         1 <0>         0.1580
     34 H11        -1.5383   -5.8966    6.8341 H         1 <0>         0.1538
     35 H12         3.9690   -7.9652   10.2668 H         1 <0>         0.1007
     36 H13         4.4530   -6.2660   10.0505 H         1 <0>         0.0952
     37 H14         3.4195   -6.7291   11.4237 H         1 <0>         0.1085
@<TRIPOS>BOND
     1    1    2 1
     2    1   24 1
     3    1   25 1
     4    1   26 1
     5    2    7 ar
     6    2    3 ar
     7    3    4 ar
     8    3   27 1
     9    4    5 ar
    10    4   28 1
    11    5    6 ar
    12    5   29 1
    13    6    7 ar
    14    6    9 1
    15    7    8 1
    16    8   30 1
    17    8   31 1
    18    8   32 1
    19    9   10 1
    20   10   11 2
    21   10   12 2
    22   10   13 1
    23   13   17 1
    24   13   14 2
    25   14   15 1
    26   14   33 1
    27   15   16 2
    28   15   34 1
    29   16   17 1
    30   16   18 1
    31   18   22 1
    32   18   19 2
    33   19   20 1
    34   20   21 2
    35   21   22 1
    36   21   23 1
    37   23   35 1
    38   23   36 1
    39   23   37 1
@<TRIPOS>MOLECULE
ZINC66250326
   34    35     0     0     0
SMALL
USER_CHARGES

@<TRIPOS>ATOM
      1 C1         -0.0184    1.5028    0.0103 C.3       1 <0>        -0.1520
      2 C2          0.0021   -0.0041    0.0020 C.ar      1 <0>         0.0388
      3 C3          0.0058   -0.6888   -1.1988 C.ar      1 <0>        -0.6200
      4 C4          0.0246   -2.0709   -1.2066 C.ar      1 <0>        -0.0176
      5 C5          0.0396   -2.7693   -0.0135 C.ar      1 <0>        -0.1405
      6 C6          0.0359   -2.0859    1.1877 C.ar      1 <0>        -0.0618
      7 C7          0.0229   -0.7022    1.1960 C.ar      1 <0>        -0.0647
      8 Cl1         0.0249    0.1571    2.7045 Cl        1 <0>        -0.0665
      9 S1         -0.0140    0.2004   -2.7199 S.o2      1 <0>         2.6224
     10 O1          0.9983    1.1930   -2.6232 O.2       1 <0>        -0.9918
     11 O2         -0.0326   -0.7702   -3.7575 O.2       1 <0>        -0.9983
     12 N1         -1.4595    1.0046   -2.7981 N.2       1 <0>        -0.9974
     13 C8         -1.7525    1.7903   -3.8916 C.2       1 <0>         0.4467
     14 N2         -2.8434    2.5013   -4.1189 N.2       1 <0>        -0.5961
     15 C9         -2.9840    3.2067   -5.2123 C.2       1 <0>         0.2467
     16 C10        -1.9278    3.1650   -6.1132 C.2       1 <0>        -0.3726
     17 S2         -0.8033    2.0781   -5.2512 S.3       1 <0>        -0.0459
     18 C11        -1.7814    3.8095   -7.3670 C.2       1 <0>         0.5712
     19 O3         -2.6697    4.5251   -7.7907 O.2       1 <0>        -0.5367
     20 O4         -0.6569    3.6295   -8.0910 O.3       1 <0>        -0.3564
     21 C12        -0.5769    4.3096   -9.3452 C.3       1 <0>         0.0401
     22 C13        -4.2245    4.0196   -5.4793 C.3       1 <0>        -0.0882
     23 H1          1.0042    1.8801    0.0026 H         1 <0>         0.0943
     24 H2         -0.5455    1.8639   -0.8728 H         1 <0>         0.0961
     25 H3         -0.5286    1.8543    0.9071 H         1 <0>         0.0824
     26 H4          0.0271   -2.6054   -2.1450 H         1 <0>         0.1481
     27 H5          0.0539   -3.8492   -0.0201 H         1 <0>         0.1394
     28 H6          0.0474   -2.6316    2.1196 H         1 <0>         0.1376
     29 H7         -1.3945    3.9834   -9.9881 H         1 <0>         0.0547
     30 H8         -0.6506    5.3846   -9.1810 H         1 <0>         0.0548
     31 H9          0.3752    4.0795   -9.8233 H         1 <0>         0.0935
     32 H10        -4.0940    5.0244   -5.0776 H         1 <0>         0.0776
     33 H11        -4.3966    4.0775   -6.5541 H         1 <0>         0.0900
     34 H12        -5.0804    3.5448   -4.9995 H         1 <0>         0.0719
@<TRIPOS>BOND
     1    1    2 1
     2    1   23 1
     3    1   24 1
     4    1   25 1
     5    2    7 ar
     6    2    3 ar
     7    3    4 ar
     8    3    9 1
     9    4    5 ar
    10    4   26 1
    11    5    6 ar
    12    5   27 1
    13    6    7 ar
    14    6   28 1
    15    7    8 1
    16    9   10 2
    17    9   11 2
    18    9   12 1
    19   12   13 1
    20   13   17 1
    21   13   14 2
    22   14   15 1
    23   15   16 2
    24   15   22 1
    25   16   17 1
    26   16   18 1
    27   18   19 2
    28   18   20 1
    29   20   21 1
    30   21   29 1
    31   21   30 1
    32   21   31 1
    33   22   32 1
    34   22   33 1
    35   22   34 1
@<TRIPOS>MOLECULE
ZINC32831781
   41    44     0     0     0
SMALL
USER_CHARGES
5,7-dichloro-2-[(E)-2-(2-pyrrolidin-1-ylpyrimidin-5-yl)vinyl]quinolin-8-ol
@<TRIPOS>ATOM
      1 C1         -6.1547    1.7418    0.0413 C.ar      1 <0>        -0.1352
      2 C2         -7.3472    1.0839    0.0438 C.ar      1 <0>        -0.1064
      3 C3         -7.3345   -0.3259    0.0365 C.ar      1 <0>        -0.0200
      4 C4         -8.5301   -1.0624    0.0382 C.ar      1 <0>        -0.1755
      5 C5         -8.4890   -2.4249    0.0319 C.ar      1 <0>         0.0005
      6 C6         -7.2728   -3.1045    0.0220 C.ar      1 <0>        -0.2183
      7 C7         -6.0804   -2.4166    0.0198 C.ar      1 <0>         0.3228
      8 C8         -6.0908   -1.0057    0.0270 C.ar      1 <0>         0.0541
      9 N1         -4.9504   -0.3122    0.0196 N.ar      1 <0>        -0.3958
     10 C9         -4.9521    1.0106    0.0317 C.ar      1 <0>         0.0934
     11 C10        -3.6700    1.7328    0.0291 C.2       1 <0>        -0.0834
     12 C11        -2.5130    1.0482    0.0200 C.2       1 <0>        -0.0942
     13 C12        -1.2299    1.7709    0.0174 C.ar      1 <0>        -0.1683
     14 C13        -0.0126    1.0758    0.0080 C.ar      1 <0>         0.1811
     15 N2          1.1157    1.7614    0.0009 N.ar      1 <0>        -0.5207
     16 C14         1.1072    3.0873    0.0076 C.ar      1 <0>         0.4679
     17 N3         -0.0222    3.7818    0.0212 N.ar      1 <0>        -0.5472
     18 C15        -1.1933    3.1722    0.0291 C.ar      1 <0>         0.1679
     19 N4          2.3116    3.7657   -0.0002 N.pl3     1 <0>        -0.4495
     20 C16         3.0770    3.4772   -1.2400 C.3       1 <0>         0.0493
     21 C17         4.0701    4.6631   -1.3276 C.3       1 <0>        -0.1232
     22 C18         3.2274    5.8577   -0.8249 C.3       1 <0>        -0.1273
     23 C19         2.0958    5.2289    0.0091 C.3       1 <0>         0.0373
     24 O1         -4.9010   -3.0920    0.0101 O.3       1 <0>        -0.6260
     25 Cl1        -7.2609   -4.8404    0.0131 Cl        1 <0>        -0.0944
     26 Cl2       -10.0583   -0.2389    0.0493 Cl        1 <0>        -0.1045
     27 H1         -6.1319    2.8215    0.0463 H         1 <0>         0.1254
     28 H2         -8.2796    1.6288    0.0508 H         1 <0>         0.1316
     29 H3         -9.4122   -2.9854    0.0339 H         1 <0>         0.1184
     30 H4         -3.6582    2.8327    0.0346 H         1 <0>         0.1235
     31 H5         -2.5248   -0.0517    0.0145 H         1 <0>         0.1482
     32 H6          0.0021   -0.0041    0.0020 H         1 <0>         0.1767
     33 H7         -2.1091    3.7445    0.0402 H         1 <0>         0.1701
     34 H8          3.5869    2.5078   -1.1389 H         1 <0>         0.0958
     35 H9          2.3877    3.4413   -2.0965 H         1 <0>         0.0497
     36 H10         4.9410    4.4600   -0.6871 H         1 <0>         0.0795
     37 H11         4.4018    4.7874   -2.3690 H         1 <0>         0.0778
     38 H12         3.8587    6.5211   -0.2156 H         1 <0>         0.0764
     39 H13         2.8329    6.4165   -1.6864 H         1 <0>         0.0718
     40 H14         1.1148    5.4576   -0.4328 H         1 <0>         0.0871
     41 H15         2.1262    5.5975    1.0451 H         1 <0>         0.0838
@<TRIPOS>BOND
     1    1   10 ar
     2    1    2 ar
     3    1   27 1
     4    2    3 ar
     5    2   28 1
     6    3    8 ar
     7    3    4 ar
     8    4    5 ar
     9    4   26 1
    10    5    6 ar
    11    5   29 1
    12    6    7 ar
    13    6   25 1
    14    7    8 ar
    15    7   24 1
    16    8    9 ar
    17    9   10 ar
    18   10   11 1
    19   11   12 2
    20   11   30 1
    21   12   13 1
    22   12   31 1
    23   13   18 ar
    24   13   14 ar
    25   14   15 ar
    26   14   32 1
    27   15   16 ar
    28   16   17 ar
    29   16   19 1
    30   17   18 ar
    31   18   33 1
    32   19   23 1
    33   19   20 1
    34   20   21 1
    35   20   34 1
    36   20   35 1
    37   21   22 1
    38   21   36 1
    39   21   37 1
    40   22   23 1
    41   22   38 1
    42   22   39 1
    43   23   40 1
    44   23   41 1
@<TRIPOS>MOLECULE
ZINC39724212
   43    46     0     0     0
SMALL
USER_CHARGES

@<TRIPOS>ATOM
      1 C1         -0.0187    1.5258    0.0104 C.3       1 <0>        -0.1478
      2 C2          0.0021   -0.0041    0.0020 C.3       1 <0>        -0.0932
      3 H1         -1.0225   -0.3760    0.0098 H         1 <0>         0.0801
      4 C3          0.7020   -0.4891   -1.2650 C.3       1 <0>        -0.1152
      5 C4          0.6674   -2.0216   -1.3420 C.3       1 <0>        -0.0949
      6 C5          1.2369   -2.5378   -0.0226 C.2       1 <0>         0.0514
      7 C6          2.2525   -3.3931    0.0839 C.2       1 <0>        -0.3052
      8 C7          2.8153   -3.6527    1.4369 C.2       1 <0>         0.2578
      9 N1          3.8400   -4.4424    1.6324 N.2       1 <0>        -0.4946
     10 C8          4.3872   -5.0333    0.5557 C.2       1 <0>         0.4775
     11 N2          3.9723   -4.8749   -0.6883 N.2       1 <0>        -0.6288
     12 C9          2.9407   -4.0980   -1.0501 C.2       1 <0>         0.5648
     13 O1          2.5882   -3.9733   -2.2112 O.2       1 <0>        -0.4583
     14 C10         5.5348   -5.9229    0.7800 C.2       1 <0>        -0.1772
     15 C11         6.1218   -6.5411   -0.2631 C.2       1 <0>         0.0354
     16 C12         7.2716   -7.4325   -0.0384 C.ar      1 <0>        -0.1114
     17 C13         7.7514   -7.6423    1.2593 C.ar      1 <0>        -0.1046
     18 C14         8.8224   -8.4726    1.4681 C.ar      1 <0>        -0.0947
     19 C15         9.4352   -9.1096    0.3845 C.ar      1 <0>        -0.1060
     20 C16         8.9564   -8.8999   -0.9126 C.ar      1 <0>        -0.0955
     21 C17         7.8816   -8.0747   -1.1217 C.ar      1 <0>        -0.0987
     22 C18        10.5874  -10.0028    0.6097 C.2       1 <0>         0.5161
     23 O2         11.0066  -10.1861    1.7439 O.co2     1 <0>        -0.6830
     24 O3         11.1236  -10.5601   -0.3379 O.co2     1 <0>        -0.6832
     25 S1          1.8066   -2.7052    2.5327 S.3       1 <0>         0.0005
     26 C19         0.6374   -2.0316    1.2904 C.3       1 <0>        -0.0689
     27 H2         -0.3808   -2.3880    1.4462 H         1 <0>         0.1578
     28 C20         0.7285   -0.5043    1.2545 C.3       1 <0>        -0.0954
     29 H3          1.0039    1.9031    0.0027 H         1 <0>         0.0582
     30 H4         -0.5459    1.8868   -0.8726 H         1 <0>         0.0609
     31 H5         -0.5289    1.8773    0.9072 H         1 <0>         0.0595
     32 H6          0.1979   -0.0728   -2.1372 H         1 <0>         0.0833
     33 H7          1.7385   -0.1519   -1.2560 H         1 <0>         0.0695
     34 H8         -0.3594   -2.3660   -1.4655 H         1 <0>         0.1001
     35 H9          1.2808   -2.3674   -2.1740 H         1 <0>         0.1147
     36 H10         5.9077   -6.0813    1.7811 H         1 <0>         0.1464
     37 H11         5.7488   -6.3827   -1.2642 H         1 <0>         0.1398
     38 H12         7.2784   -7.1501    2.0962 H         1 <0>         0.1228
     39 H13         9.1930   -8.6343    2.4696 H         1 <0>         0.1314
     40 H14         9.4304   -9.3916   -1.7492 H         1 <0>         0.1315
     41 H15         7.5086   -7.9168   -2.1229 H         1 <0>         0.1222
     42 H16         1.7744   -0.1997    1.2175 H         1 <0>         0.0840
     43 H17         0.2541   -0.0888    2.1435 H         1 <0>         0.0910
@<TRIPOS>BOND
     1    1    2 1
     2    1   29 1
     3    1   30 1
     4    1   31 1
     5    2    3 1
     6    2   28 1
     7    2    4 1
     8    4    5 1
     9    4   32 1
    10    4   33 1
    11    5    6 1
    12    5   34 1
    13    5   35 1
    14    6   26 1
    15    6    7 2
    16    7   12 1
    17    7    8 1
    18    8    9 2
    19    8   25 1
    20    9   10 1
    21   10   11 2
    22   10   14 1
    23   11   12 1
    24   12   13 2
    25   14   15 2
    26   14   36 1
    27   15   16 1
    28   15   37 1
    29   16   21 ar
    30   16   17 ar
    31   17   18 ar
    32   17   38 1
    33   18   19 ar
    34   18   39 1
    35   19   20 ar
    36   19   22 1
    37   20   21 ar
    38   20   40 1
    39   21   41 1
    40   22   23 2
    41   22   24 1
    42   25   26 1
    43   26   27 1
    44   26   28 1
    45   28   42 1
    46   28   43 1
@<TRIPOS>MOLECULE
ZINC60957344
   51    54     0     0     0
SMALL
USER_CHARGES

@<TRIPOS>ATOM
      1 C1          1.2294   -0.7145    0.0447 C.ar      1 <0>        -0.1044
      2 C2          2.4167   -0.0133    0.0728 C.ar      1 <0>        -0.1447
      3 C3          2.4055    1.3714    0.1273 C.ar      1 <0>         0.0875
      4 C4          1.2026    2.0591    0.1537 C.ar      1 <0>        -0.1466
      5 C5          0.0095    1.3678    0.1264 C.ar      1 <0>        -0.0624
      6 C6          0.0150   -0.0269    0.0711 C.ar      1 <0>         0.0160
      7 C7         -1.2608   -0.7732    0.0407 C.2       1 <0>         0.1401
      8 N1         -2.4393   -0.3186    0.3980 N.2       1 <0>        -0.2702
      9 N2         -3.3281   -1.2337    0.2428 N.2       1 <0>        -0.3382
     10 C8         -2.7714   -2.3291   -0.2234 C.2       1 <0>         0.3794
     11 N3         -1.4380   -2.0732   -0.3732 N.pl3     1 <0>        -0.4867
     12 C9         -0.4105   -2.9922   -0.8691 C.3       1 <0>         0.1337
     13 C10         0.1263   -3.8315    0.2920 C.3       1 <0>        -0.1604
     14 C11         1.1833   -4.7769   -0.2181 C.2       1 <0>         0.5286
     15 O1          1.4781   -4.7791   -1.3946 O.2       1 <0>        -0.5293
     16 N4          1.8009   -5.6199    0.6330 N.am      1 <0>        -0.6096
     17 C12         1.4546   -5.6384    2.0625 C.3       1 <0>         0.1039
     18 C13         2.7310   -5.4641    2.8900 C.3       1 <0>        -0.1347
     19 C14         3.7641   -6.5154    2.4732 C.3       1 <0>        -0.1142
     20 C15         4.1022   -6.3285    0.9951 C.3       1 <0>        -0.0993
     21 C16         2.8324   -6.5483    0.1580 C.3       1 <0>         0.1527
     22 C17         3.1510   -6.2899   -1.3138 C.3       1 <0>        -0.1072
     23 C18         4.2245   -7.2806   -1.7735 C.3       1 <0>        -0.1265
     24 C19         5.4881   -7.1057   -0.9302 C.3       1 <0>        -0.1206
     25 C20         5.1687   -7.3299    0.5541 C.3       1 <0>        -0.1098
     26 S1         -3.5930   -3.8435   -0.5926 S.3       1 <0>        -0.7969
     27 F1          3.5714    2.0534    0.1551 F         1 <0>        -0.1435
     28 H1          1.2393   -1.7934   -0.0022 H         1 <0>         0.1373
     29 H2          3.3569   -0.5444    0.0528 H         1 <0>         0.1346
     30 H3          1.1995    3.1382    0.1962 H         1 <0>         0.1380
     31 H4         -0.9274    1.9047    0.1478 H         1 <0>         0.1446
     32 H5         -0.8442   -3.6497   -1.6226 H         1 <0>         0.1082
     33 H6          0.4052   -2.4206   -1.3118 H         1 <0>         0.0921
     34 H7          0.5600   -3.1741    1.0455 H         1 <0>         0.0920
     35 H8         -0.6894   -4.4032    0.7347 H         1 <0>         0.1126
     36 H9          0.7646   -4.8233    2.2809 H         1 <0>         0.0879
     37 H10         0.9860   -6.5905    2.3117 H         1 <0>         0.0716
     38 H11         3.1393   -4.4676    2.7213 H         1 <0>         0.0671
     39 H12         2.4969   -5.5851    3.9477 H         1 <0>         0.0766
     40 H13         4.6674   -6.3956    3.0714 H         1 <0>         0.0652
     41 H14         3.3524   -7.5125    2.6295 H         1 <0>         0.0643
     42 H15         4.4686   -5.3148    0.8331 H         1 <0>         0.0732
     43 H16         2.4843   -7.5737    0.2823 H         1 <0>         0.0693
     44 H17         2.2495   -6.4257   -1.9113 H         1 <0>         0.0910
     45 H18         3.5196   -5.2711   -1.4337 H         1 <0>         0.0714
     46 H19         3.8510   -8.2982   -1.6593 H         1 <0>         0.0578
     47 H20         4.4607   -7.0982   -2.8219 H         1 <0>         0.0637
     48 H21         6.2417   -7.8237   -1.2536 H         1 <0>         0.0594
     49 H22         5.8734   -6.0945   -1.0607 H         1 <0>         0.0595
     50 H23         6.0683   -7.1925    1.1541 H         1 <0>         0.0642
     51 H24         4.7928   -8.3446    0.6853 H         1 <0>         0.0618
@<TRIPOS>BOND
     1    1    6 ar
     2    1    2 ar
     3    1   28 1
     4    2    3 ar
     5    2   29 1
     6    3    4 ar
     7    3   27 1
     8    4    5 ar
     9    4   30 1
    10    5    6 ar
    11    5   31 1
    12    6    7 1
    13    7   11 1
    14    7    8 2
    15    8    9 1
    16    9   10 2
    17   10   26 1
    18   10   11 1
    19   11   12 1
    20   12   13 1
    21   12   32 1
    22   12   33 1
    23   13   14 1
    24   13   34 1
    25   13   35 1
    26   14   15 2
    27   14   16 am
    28   16   21 1
    29   16   17 1
    30   17   18 1
    31   17   36 1
    32   17   37 1
    33   18   19 1
    34   18   38 1
    35   18   39 1
    36   19   20 1
    37   19   40 1
    38   19   41 1
    39   20   25 1
    40   20   21 1
    41   20   42 1
    42   21   22 1
    43   21   43 1
    44   22   23 1
    45   22   44 1
    46   22   45 1
    47   23   24 1
    48   23   46 1
    49   23   47 1
    50   24   25 1
    51   24   48 1
    52   24   49 1
    53   25   50 1
    54   25   51 1
@<TRIPOS>MOLECULE
ZINC22412502
   34    37     0     0     0
SMALL
USER_CHARGES

@<TRIPOS>ATOM
      1 C1         -0.0167    1.3786    0.0096 C.ar      1 <0>        -0.1392
      2 C2          1.1696    2.0892    0.0021 C.ar      1 <0>        -0.1061
      3 C3          2.3774    1.4195   -0.0134 C.ar      1 <0>        -0.1250
      4 C4          2.3996    0.0309   -0.0211 C.ar      1 <0>         0.1842
      5 C5          1.2065   -0.6797   -0.0130 C.ar      1 <0>        -0.1196
      6 C6          0.0021   -0.0041    0.0020 C.ar      1 <0>        -0.1003
      7 N1          3.6226   -0.6512   -0.0373 N.pl3     1 <0>        -0.3491
      8 C7          3.8854   -1.8392    0.5840 C.ar      1 <0>         0.3715
      9 N2          3.1748   -2.6774    1.3348 N.ar      1 <0>        -0.5976
     10 C8          3.7215   -3.7847    1.8087 C.ar      1 <0>         0.3822
     11 N3          4.9859   -4.1149    1.5660 N.ar      1 <0>        -0.6320
     12 C9          5.7674   -3.3397    0.8283 C.ar      1 <0>         0.5089
     13 O1          7.0538   -3.6844    0.5866 O.3       1 <0>        -0.6661
     14 C10         5.2305   -2.1504    0.3018 C.ar      1 <0>        -0.3630
     15 C11         5.7365   -1.1048   -0.5021 C.2       1 <0>         0.1380
     16 N4          4.7856   -0.2362   -0.6983 N.2       1 <0>        -0.3001
     17 S1          2.7380   -4.8609    2.7983 S.3       1 <0>        -0.0204
     18 C12         3.8634   -6.2193    3.2209 C.3       1 <0>        -0.0784
     19 C13         3.1269   -7.2399    4.0908 C.3       1 <0>        -0.0983
     20 H1          2.3296   -6.8370    4.7153 H         1 <0>         0.1369
     21 C14         2.9350   -8.6466    3.5204 C.3       1 <0>        -0.1358
     22 C15         3.9401   -8.4090    4.6502 C.3       1 <0>         0.0048
     23 Cl1         3.5057   -9.0150    6.2918 Cl        1 <0>        -0.0988
     24 Cl2         5.6930   -8.4785    4.2339 Cl        1 <0>        -0.0801
     25 H2         -0.9598    1.9047    0.0260 H         1 <0>         0.1214
     26 H3          1.1517    3.1691    0.0080 H         1 <0>         0.1245
     27 H4          3.3035    1.9750   -0.0200 H         1 <0>         0.1283
     28 H5          1.2205   -1.7596   -0.0193 H         1 <0>         0.1353
     29 H6         -0.9261   -0.5562    0.0079 H         1 <0>         0.1264
     30 H7          6.7416   -1.0386   -0.8917 H         1 <0>         0.1889
     31 H8          4.2087   -6.7028    2.3070 H         1 <0>         0.1027
     32 H9          4.7192   -5.8251    3.7690 H         1 <0>         0.1075
     33 H10         2.0116   -9.1692    3.7700 H         1 <0>         0.1234
     34 H11         3.3334   -8.8450    2.5255 H         1 <0>         0.1249
@<TRIPOS>BOND
     1    1    6 ar
     2    1    2 ar
     3    1   25 1
     4    2    3 ar
     5    2   26 1
     6    3    4 ar
     7    3   27 1
     8    4    5 ar
     9    4    7 1
    10    5    6 ar
    11    5   28 1
    12    6   29 1
    13    7   16 1
    14    7    8 1
    15    8   14 ar
    16    8    9 ar
    17    9   10 ar
    18   10   11 ar
    19   10   17 1
    20   11   12 ar
    21   12   13 1
    22   12   14 ar
    23   14   15 1
    24   15   16 2
    25   15   30 1
    26   17   18 1
    27   18   19 1
    28   18   31 1
    29   18   32 1
    30   19   20 1
    31   19   22 1
    32   19   21 1
    33   21   22 1
    34   21   33 1
    35   21   34 1
    36   22   23 1
    37   22   24 1
@<TRIPOS>MOLECULE
ZINC66247113
   40    42     0     0     0
SMALL
USER_CHARGES

@<TRIPOS>ATOM
      1 C1         -0.0187    1.5258    0.0104 C.3       1 <0>        -0.1495
      2 C2          0.0021   -0.0041    0.0020 C.3       1 <0>        -0.0434
      3 C3         -1.4117   -0.5257    0.0127 C.2       1 <0>        -0.1228
      4 C4         -2.2207   -0.8207   -1.0341 C.2       1 <0>        -0.1876
      5 C5         -3.4955   -1.2927   -0.7839 C.2       1 <0>        -0.0224
      6 C6         -3.8991   -1.4465    0.5009 C.2       1 <0>        -0.6940
      7 S1         -2.4530   -0.9228    1.4074 S.3       1 <0>         0.1540
      8 S2         -5.4470   -2.0207    1.1165 S.o2      1 <0>         2.6543
      9 O1         -5.5851   -1.4893    2.4272 O.2       1 <0>        -0.9914
     10 O2         -6.4043   -1.7833    0.0935 O.2       1 <0>        -0.9907
     11 N1         -5.3289   -3.6641    1.2821 N.2       1 <0>        -0.9990
     12 C7         -6.4023   -4.3876    1.7501 C.2       1 <0>         0.4435
     13 N2         -6.4843   -5.6947    1.9493 N.2       1 <0>        -0.5981
     14 C8         -7.5738   -6.2637    2.4044 C.2       1 <0>         0.2278
     15 C9         -8.6264   -5.3749    2.6586 C.2       1 <0>        -0.4183
     16 S3         -7.9211   -3.8183    2.2121 S.3       1 <0>        -0.0247
     17 C10        -9.8773   -5.7272    3.1497 C.2       1 <0>         0.4460
     18 O3        -10.7471   -4.8965    3.3228 O.2       1 <0>        -0.5088
     19 C11       -10.1108   -7.1944    3.4603 C.3       1 <0>        -0.1402
     20 C12        -9.2747   -8.0540    2.5118 C.3       1 <0>        -0.0565
     21 C13        -7.7816   -7.7485    2.6645 C.3       1 <0>        -0.0375
     22 C14        -9.7005   -7.7706    1.0699 C.3       1 <0>        -0.1500
     23 C15        -9.5196   -9.5314    2.8253 C.3       1 <0>        -0.1381
     24 H1          1.0039    1.9031    0.0027 H         1 <0>         0.0649
     25 H2         -0.5459    1.8868   -0.8726 H         1 <0>         0.0598
     26 H3         -0.5289    1.8773    0.9072 H         1 <0>         0.0599
     27 H4          0.5123   -0.3556   -0.8948 H         1 <0>         0.0887
     28 H5          0.5293   -0.3651    0.8851 H         1 <0>         0.0825
     29 H6         -1.8744   -0.6887   -2.0486 H         1 <0>         0.1385
     30 H7         -4.1603   -1.5349   -1.5999 H         1 <0>         0.1455
     31 H8         -9.8178   -7.3991    4.4901 H         1 <0>         0.0929
     32 H9        -11.1669   -7.4302    3.3290 H         1 <0>         0.0881
     33 H10        -7.2108   -8.3321    1.9422 H         1 <0>         0.0885
     34 H11        -7.4571   -7.9940    3.6757 H         1 <0>         0.0889
     35 H12        -9.5413   -6.7161    0.8447 H         1 <0>         0.0647
     36 H13        -9.1073   -8.3811    0.3892 H         1 <0>         0.0569
     37 H14       -10.7564   -8.0126    0.9486 H         1 <0>         0.0543
     38 H15       -10.5767   -9.7609    2.6915 H         1 <0>         0.0575
     39 H16        -8.9256  -10.1491    2.1517 H         1 <0>         0.0586
     40 H17        -9.2309   -9.7368    3.8561 H         1 <0>         0.0571
@<TRIPOS>BOND
     1    1    2 1
     2    1   24 1
     3    1   25 1
     4    1   26 1
     5    2    3 1
     6    2   27 1
     7    2   28 1
     8    3    7 1
     9    3    4 2
    10    4    5 1
    11    4   29 1
    12    5    6 2
    13    5   30 1
    14    6    7 1
    15    6    8 1
    16    8    9 2
    17    8   10 2
    18    8   11 1
    19   11   12 1
    20   12   16 1
    21   12   13 2
    22   13   14 1
    23   14   21 1
    24   14   15 2
    25   15   16 1
    26   15   17 1
    27   17   18 2
    28   17   19 1
    29   19   20 1
    30   19   31 1
    31   19   32 1
    32   20   21 1
    33   20   22 1
    34   20   23 1
    35   21   33 1
    36   21   34 1
    37   22   35 1
    38   22   36 1
    39   22   37 1
    40   23   38 1
    41   23   39 1
    42   23   40 1
@<TRIPOS>MOLECULE
ZINC13075082
   36    38     0     0     0
SMALL
USER_CHARGES
2-chloro-5-[(2S)-2-(2-thienyl)pyrrolidin-1-yl]sulfonyl-benzoic acid
@<TRIPOS>ATOM
      1 C1          2.2199    1.0478   -0.0135 C.2       1 <0>        -0.1596
      2 C2          1.3000    2.0794    0.0008 C.2       1 <0>        -0.1146
      3 C3         -0.0221    1.7810    0.0118 C.2       1 <0>        -0.2158
      4 S1          0.0021   -0.0041    0.0020 S.3       1 <0>         0.0356
      5 C4          1.7727   -0.2318   -0.0161 C.2       1 <0>        -0.1100
      6 C5         -1.2055    2.7140    0.0228 C.3       1 <0>         0.2455
      7 H1         -0.8993    3.7049   -0.3125 H         1 <0>         0.1008
      8 C6         -1.7926    2.8003    1.4474 C.3       1 <0>        -0.1184
      9 C7         -3.3238    2.8525    1.1870 C.3       1 <0>        -0.1270
     10 C8         -3.4635    1.9256   -0.0463 C.3       1 <0>         0.1129
     11 N1         -2.2616    2.1926   -0.8571 N.pl3     1 <0>        -1.0062
     12 S2         -2.1240    1.9467   -2.4890 S.o2      1 <0>         2.7075
     13 O1         -3.4420    1.9889   -3.0186 O.2       1 <0>        -0.9610
     14 O2         -1.0920    2.8108   -2.9444 O.2       1 <0>        -0.9468
     15 C9         -1.5409    0.3002   -2.7204 C.ar      1 <0>        -0.7016
     16 C10        -2.4446   -0.7408   -2.8469 C.ar      1 <0>        -0.0108
     17 C11        -1.9966   -2.0361   -3.0292 C.ar      1 <0>        -0.1578
     18 C12        -0.6418   -2.2999   -3.0860 C.ar      1 <0>         0.0461
     19 C13         0.2756   -1.2533   -2.9591 C.ar      1 <0>        -0.1326
     20 C14        -0.1857    0.0530   -2.7808 C.ar      1 <0>         0.0653
     21 C15         1.7254   -1.5264   -3.0186 C.2       1 <0>         0.4864
     22 O3          2.1234   -2.6630   -3.1783 O.co2     1 <0>        -0.6092
     23 Cl1        -0.0804   -3.9267   -3.3139 Cl        1 <0>        -0.0367
     24 H2          3.2792    1.2581   -0.0229 H         1 <0>         0.1315
     25 H3          1.6298    3.1078    0.0028 H         1 <0>         0.1293
     26 H4          2.3402   -1.1506   -0.0268 H         1 <0>         0.1799
     27 H5         -1.5304    1.9151    2.0269 H         1 <0>         0.0817
     28 H6         -1.4535    3.7060    1.9501 H         1 <0>         0.0852
     29 H7         -3.6436    3.8675    0.9512 H         1 <0>         0.0780
     30 H8         -3.8791    2.4573    2.0376 H         1 <0>         0.0841
     31 H9         -4.3635    2.1752   -0.6084 H         1 <0>         0.0861
     32 H10        -3.4870    0.8812    0.2648 H         1 <0>         0.0688
     33 H11        -3.5049   -0.5402   -2.8025 H         1 <0>         0.1376
     34 H12        -2.7073   -2.8434   -3.1271 H         1 <0>         0.1340
     35 H13         0.5176    0.8671   -2.6861 H         1 <0>         0.1479
     36 O4          2.6069   -0.5151   -2.8958 O.co2     1 <0>        -0.7362
@<TRIPOS>BOND
     1    1    5 2
     2    1    2 1
     3    1   24 1
     4    2    3 2
     5    2   25 1
     6    3    4 1
     7    3    6 1
     8    4    5 1
     9    5   26 1
    10    6    7 1
    11    6   11 1
    12    6    8 1
    13    8    9 1
    14    8   27 1
    15    8   28 1
    16    9   10 1
    17    9   29 1
    18    9   30 1
    19   10   11 1
    20   10   31 1
    21   10   32 1
    22   11   12 1
    23   12   13 2
    24   12   14 2
    25   12   15 1
    26   15   20 ar
    27   15   16 ar
    28   16   17 ar
    29   16   33 1
    30   17   18 ar
    31   17   34 1
    32   18   19 ar
    33   18   23 1
    34   19   20 ar
    35   19   21 1
    36   20   35 1
    37   21   22 2
    38   21   36 1
@<TRIPOS>MOLECULE
ZINC36987999
   28    29     0     0     0
SMALL
USER_CHARGES

@<TRIPOS>ATOM
      1 C1         -0.0167    1.3775    0.0096 C.ar      1 <0>        -0.0311
      2 C2          1.1687    2.0872    0.0021 C.ar      1 <0>        -0.2871
      3 C3          2.3831    1.4125   -0.0135 C.ar      1 <0>         0.3101
      4 C4          2.4036    0.0243   -0.0211 C.ar      1 <0>        -0.2038
      5 C5          1.2124   -0.6837   -0.0131 C.ar      1 <0>         0.1560
      6 C6          0.0021   -0.0041    0.0020 C.ar      1 <0>        -0.3035
      7 O1          1.2291   -2.0425   -0.0210 O.3       1 <0>        -0.3144
      8 C7         -0.0361   -2.7069   -0.0119 C.3       1 <0>         0.1591
      9 C8          0.1746   -4.1637   -0.0223 C.1       1 <0>         0.2188
     10 N1          0.3373   -5.2880   -0.0303 N.1       1 <0>        -0.4144
     11 N2          3.5815    2.1297   -0.0220 N.2       1 <0>        -1.0819
     12 S1          3.5556    3.7854   -0.0135 S.o2      1 <0>         2.6309
     13 O2          2.9860    4.1891   -1.2512 O.2       1 <0>        -1.0144
     14 O3          3.0111    4.1766    1.2394 O.2       1 <0>        -1.0162
     15 C9          5.2304    4.3327   -0.0277 C.2       1 <0>        -0.6556
     16 C10         6.0291    4.6082   -1.0873 C.2       1 <0>        -0.0465
     17 C11         7.3261    5.0287   -0.8581 C.2       1 <0>        -0.1318
     18 C12         7.7603    5.1528    0.4208 C.2       1 <0>        -0.1752
     19 S2          6.3127    4.6754    1.3502 S.3       1 <0>         0.2101
     20 Br1         9.4565    5.6975    1.0550 Br        1 <0>         0.0353
     21 H1         -0.9597    1.9036    0.0259 H         1 <0>         0.1087
     22 H2          1.1513    3.1670    0.0080 H         1 <0>         0.0995
     23 H3          3.3462   -0.5028   -0.0336 H         1 <0>         0.1226
     24 H4         -0.9262   -0.5560    0.0082 H         1 <0>         0.1127
     25 H5         -0.5876   -2.4259    0.8853 H         1 <0>         0.1071
     26 H6         -0.6056   -2.4159   -0.8946 H         1 <0>         0.1070
     27 H7          5.6581    4.5006   -2.0958 H         1 <0>         0.1529
     28 H8          7.9835    5.2545   -1.6847 H         1 <0>         0.1451
@<TRIPOS>BOND
     1    1    6 ar
     2    1    2 ar
     3    1   21 1
     4    2    3 ar
     5    2   22 1
     6    3    4 ar
     7    3   11 1
     8    4    5 ar
     9    4   23 1
    10    5    6 ar
    11    5    7 1
    12    6   24 1
    13    7    8 1
    14    8    9 1
    15    8   25 1
    16    8   26 1
    17    9   10 3
    18   11   12 1
    19   12   13 2
    20   12   14 2
    21   12   15 1
    22   15   19 1
    23   15   16 2
    24   16   17 1
    25   16   27 1
    26   17   18 2
    27   17   28 1
    28   18   19 1
    29   18   20 1
@<TRIPOS>MOLECULE
ZINC42266238
   28    29     0     0     0
SMALL
USER_CHARGES

@<TRIPOS>ATOM
      1 C1         -0.0167    1.3775    0.0096 C.ar      1 <0>        -0.0310
      2 C2          1.1687    2.0872    0.0021 C.ar      1 <0>        -0.2863
      3 C3          2.3831    1.4125   -0.0135 C.ar      1 <0>         0.3120
      4 C4          2.4036    0.0243   -0.0211 C.ar      1 <0>        -0.2034
      5 C5          1.2124   -0.6837   -0.0131 C.ar      1 <0>         0.1557
      6 C6          0.0021   -0.0041    0.0020 C.ar      1 <0>        -0.3030
      7 O1          1.2291   -2.0425   -0.0210 O.3       1 <0>        -0.3143
      8 C7         -0.0361   -2.7069   -0.0119 C.3       1 <0>         0.1589
      9 C8          0.1746   -4.1637   -0.0223 C.1       1 <0>         0.2190
     10 N1          0.3373   -5.2880   -0.0303 N.1       1 <0>        -0.4145
     11 N2          3.5815    2.1297   -0.0220 N.2       1 <0>        -1.0877
     12 S1          3.5556    3.7854   -0.0135 S.o2      1 <0>         2.6269
     13 O2          2.9860    4.1891   -1.2512 O.2       1 <0>        -1.0047
     14 O3          3.0111    4.1766    1.2394 O.2       1 <0>        -1.0046
     15 C9          5.2304    4.3327   -0.0277 C.2       1 <0>        -0.6487
     16 C10         5.7150    5.5990   -0.0207 C.2       1 <0>        -0.0273
     17 C11         7.0840    5.7928   -0.0344 C.2       1 <0>        -0.1640
     18 C12         7.9007    4.7111   -0.0543 C.2       1 <0>        -0.1737
     19 S2          6.7297    3.3636   -0.0471 S.3       1 <0>         0.2225
     20 Br1         4.5364    7.0776    0.0067 Br        1 <0>        -0.0314
     21 H1         -0.9597    1.9036    0.0259 H         1 <0>         0.1090
     22 H2          1.1513    3.1670    0.0080 H         1 <0>         0.0994
     23 H3          3.3462   -0.5028   -0.0336 H         1 <0>         0.1231
     24 H4         -0.9262   -0.5560    0.0082 H         1 <0>         0.1128
     25 H5         -0.5876   -2.4259    0.8853 H         1 <0>         0.1071
     26 H6         -0.6056   -2.4159   -0.8946 H         1 <0>         0.1071
     27 H7          7.4963    6.7910   -0.0295 H         1 <0>         0.1447
     28 H8          8.9800    4.6741   -0.0670 H         1 <0>         0.1966
@<TRIPOS>BOND
     1    1    6 ar
     2    1    2 ar
     3    1   21 1
     4    2    3 ar
     5    2   22 1
     6    3    4 ar
     7    3   11 1
     8    4    5 ar
     9    4   23 1
    10    5    6 ar
    11    5    7 1
    12    6   24 1
    13    7    8 1
    14    8    9 1
    15    8   25 1
    16    8   26 1
    17    9   10 3
    18   11   12 1
    19   12   13 2
    20   12   14 2
    21   12   15 1
    22   15   19 1
    23   15   16 2
    24   16   17 1
    25   16   20 1
    26   17   18 2
    27   17   27 1
    28   18   19 1
    29   18   28 1
@<TRIPOS>MOLECULE
ZINC60240444
   55    57     0     0     0
SMALL
USER_CHARGES

@<TRIPOS>ATOM
      1 C1          1.5147   -7.1457    5.0442 C.3       1 <0>        -0.0812
      2 C2          1.1614   -6.3941    3.7867 C.ar      1 <0>        -0.1305
      3 C3          0.6032   -7.0669    2.7158 C.ar      1 <0>        -0.0985
      4 C4          0.2766   -6.3856    1.5612 C.ar      1 <0>        -0.2070
      5 C5          0.5100   -5.0120    1.4714 C.ar      1 <0>        -0.0999
      6 C6          1.0730   -4.3330    2.5515 C.ar      1 <0>        -0.1884
      7 C7          1.3924   -5.0257    3.7096 C.ar      1 <0>         0.2735
      8 N1          1.9514   -4.3493    4.7967 N.2       1 <0>        -1.0932
      9 S1          2.2267   -2.7189    4.7047 S.o2      1 <0>         2.5217
     10 O1          3.1968   -2.5724    3.6768 O.2       1 <0>        -1.0295
     11 O2          0.9358   -2.1402    4.5704 O.2       1 <0>        -1.0260
     12 C8          2.9459   -2.2762    6.3102 C.3       1 <0>        -0.6378
     13 C9          0.1618   -4.2797    0.2349 C.2       1 <0>         0.5778
     14 O3         -0.0008   -3.0756    0.2670 O.2       1 <0>        -0.5391
     15 N2          0.0247   -4.9475   -0.9278 N.am      1 <0>        -0.6176
     16 C10        -0.1733   -4.3331   -2.2532 C.3       1 <0>         0.1049
     17 C11        -0.8714   -5.4283   -3.0976 C.3       1 <0>        -0.1338
     18 C12        -0.1715   -6.7132   -2.5813 C.3       1 <0>        -0.1271
     19 C13         0.0543   -6.4089   -1.0852 C.3       1 <0>         0.1292
     20 H1         -0.7407   -6.8618   -0.4927 H         1 <0>         0.0887
     21 C14         1.4133   -6.9529   -0.6401 C.3       1 <0>        -0.1648
     22 C15         1.4367   -8.4726   -0.8157 C.3       1 <0>        -0.0741
     23 C16         0.2927   -9.0963   -0.0139 C.3       1 <0>        -0.1304
     24 C17         0.3161  -10.6160   -0.1895 C.3       1 <0>        -0.1167
     25 C18         1.6516  -11.1671    0.3142 C.3       1 <0>        -0.1200
     26 C19         2.7957  -10.5433   -0.4876 C.3       1 <0>        -0.1166
     27 C20         2.7722   -9.0236   -0.3120 C.3       1 <0>        -0.1156
     28 H2          0.6589   -7.1470    5.7193 H         1 <0>         0.0485
     29 H3          1.7797   -8.1723    4.7915 H         1 <0>         0.0380
     30 H4          2.3610   -6.6613    5.5314 H         1 <0>         0.0728
     31 H5          0.4225   -8.1295    2.7829 H         1 <0>         0.1087
     32 H6         -0.1593   -6.9149    0.7268 H         1 <0>         0.1377
     33 H7          1.2561   -3.2705    2.4877 H         1 <0>         0.1125
     34 H8          3.8706   -2.8335    6.4601 H         1 <0>         0.1143
     35 H9          3.1583   -1.2074    6.3308 H         1 <0>         0.1002
     36 H10         2.2408   -2.5219    7.1043 H         1 <0>         0.1146
     37 H11        -0.8109   -3.4528   -2.1719 H         1 <0>         0.0763
     38 H12         0.7869   -4.0676   -2.6955 H         1 <0>         0.0629
     39 H13        -1.9415   -5.4570   -2.8923 H         1 <0>         0.0740
     40 H14        -0.6830   -5.2811   -4.1610 H         1 <0>         0.0801
     41 H15        -0.8179   -7.5817   -2.7074 H         1 <0>         0.0791
     42 H16         0.7815   -6.8635   -3.0886 H         1 <0>         0.0766
     43 H17         2.2003   -6.5048   -1.2466 H         1 <0>         0.0609
     44 H18         1.5777   -6.7057    0.4088 H         1 <0>         0.1180
     45 H19         1.3171   -8.7183   -1.8709 H         1 <0>         0.0642
     46 H20         0.4123   -8.8506    1.0413 H         1 <0>         0.0794
     47 H21        -0.6588   -8.7038   -0.3727 H         1 <0>         0.0606
     48 H22        -0.4989  -11.0604    0.3817 H         1 <0>         0.0581
     49 H23         0.1965  -10.8617   -1.2447 H         1 <0>         0.0562
     50 H24         1.7713  -10.9214    1.3694 H         1 <0>         0.0636
     51 H25         1.6683  -12.2498    0.1891 H         1 <0>         0.0547
     52 H26         3.7471  -10.9359   -0.1288 H         1 <0>         0.0572
     53 H27         2.6760  -10.7890   -1.5428 H         1 <0>         0.0563
     54 H28         3.5873   -8.5792   -0.8832 H         1 <0>         0.0578
     55 H29         2.8919   -8.7779    0.7432 H         1 <0>         0.0685
@<TRIPOS>BOND
     1    1    2 1
     2    1   28 1
     3    1   29 1
     4    1   30 1
     5    2    7 ar
     6    2    3 ar
     7    3    4 ar
     8    3   31 1
     9    4    5 ar
    10    4   32 1
    11    5    6 ar
    12    5   13 1
    13    6    7 ar
    14    6   33 1
    15    7    8 1
    16    8    9 1
    17    9   10 2
    18    9   11 2
    19    9   12 1
    20   12   34 1
    21   12   35 1
    22   12   36 1
    23   13   14 2
    24   13   15 am
    25   15   19 1
    26   15   16 1
    27   16   17 1
    28   16   37 1
    29   16   38 1
    30   17   18 1
    31   17   39 1
    32   17   40 1
    33   18   19 1
    34   18   41 1
    35   18   42 1
    36   19   20 1
    37   19   21 1
    38   21   22 1
    39   21   43 1
    40   21   44 1
    41   22   27 1
    42   22   23 1
    43   22   45 1
    44   23   24 1
    45   23   46 1
    46   23   47 1
    47   24   25 1
    48   24   48 1
    49   24   49 1
    50   25   26 1
    51   25   50 1
    52   25   51 1
    53   26   27 1
    54   26   52 1
    55   26   53 1
    56   27   54 1
    57   27   55 1
@<TRIPOS>MOLECULE
ZINC66253667
   38    40     0     0     0
SMALL
USER_CHARGES

@<TRIPOS>ATOM
      1 C1         -0.0184    1.5028    0.0103 C.3       1 <0>        -0.0816
      2 C2          0.0021   -0.0041    0.0020 C.2       1 <0>         0.1618
      3 C3          0.0052   -0.6819   -1.1779 C.2       1 <0>        -0.2927
      4 S1          0.0311   -2.3703   -0.5894 S.3       1 <0>        -0.2055
      5 C4          0.0350   -1.9952    1.1584 C.2       1 <0>         0.5041
      6 N1          0.0225   -0.6750    1.1411 N.2       1 <0>        -0.5790
      7 N2          0.0522   -2.8613    2.2447 N.2       1 <0>        -1.0009
      8 S2          0.0737   -4.4986    1.9979 S.o2      1 <0>         2.6120
      9 O1         -1.1700   -4.8354    1.3987 O.2       1 <0>        -1.0017
     10 O2          1.3204   -4.8009    1.3867 O.2       1 <0>        -1.0076
     11 C5          0.0920   -5.2644    3.5847 C.2       1 <0>        -0.6342
     12 C6          1.2169   -5.7954    4.0370 C.2       1 <0>         0.0113
     13 C7          1.2318   -6.4715    5.3503 C.ar      1 <0>        -0.0736
     14 C8          2.4328   -6.7310    6.0071 C.ar      1 <0>        -0.0911
     15 C9          2.4160   -7.3511    7.2406 C.ar      1 <0>        -0.1312
     16 C10         1.2132   -7.7114    7.8218 C.ar      1 <0>        -0.1090
     17 C11         0.0180   -7.4608    7.1704 C.ar      1 <0>        -0.1242
     18 C12         0.0227   -6.8494    5.9350 C.ar      1 <0>        -0.0554
     19 C13        -1.2658   -6.6038    5.1942 C.3       1 <0>        -0.0817
     20 C14        -1.1691   -5.2975    4.4030 C.3       1 <0>        -0.0586
     21 S3         -0.0120   -0.0663   -2.8287 S.3       1 <0>         0.0014
     22 C15         0.0033   -1.5620   -3.8550 C.3       1 <0>        -0.0340
     23 C16        -0.0095   -1.1815   -5.2769 C.1       1 <0>         0.2311
     24 N3         -0.0193   -0.8879   -6.3743 N.1       1 <0>        -0.4176
     25 H1          1.0042    1.8801    0.0026 H         1 <0>         0.0709
     26 H2         -0.5455    1.8639   -0.8728 H         1 <0>         0.0672
     27 H3         -0.5286    1.8543    0.9071 H         1 <0>         0.0717
     28 H4          2.1202   -5.7349    3.4481 H         1 <0>         0.1438
     29 H5          3.3716   -6.4490    5.5538 H         1 <0>         0.1295
     30 H6          3.3444   -7.5557    7.7530 H         1 <0>         0.1242
     31 H7          1.2069   -8.1914    8.7893 H         1 <0>         0.1223
     32 H8         -0.9175   -7.7444    7.6295 H         1 <0>         0.1252
     33 H9         -1.4538   -7.4319    4.5108 H         1 <0>         0.0813
     34 H10        -2.0860   -6.5327    5.9086 H         1 <0>         0.0829
     35 H11        -1.1702   -4.4546    5.0940 H         1 <0>         0.0850
     36 H12        -2.0296   -5.2166    3.7388 H         1 <0>         0.0901
     37 H13         0.9025   -2.1399   -3.6416 H         1 <0>         0.1318
     38 H14        -0.8772   -2.1645   -3.6322 H         1 <0>         0.1318
@<TRIPOS>BOND
     1    1    2 1
     2    1   25 1
     3    1   26 1
     4    1   27 1
     5    2    6 1
     6    2    3 2
     7    3    4 1
     8    3   21 1
     9    4    5 1
    10    5    6 2
    11    5    7 1
    12    7    8 1
    13    8    9 2
    14    8   10 2
    15    8   11 1
    16   11   20 1
    17   11   12 2
    18   12   13 1
    19   12   28 1
    20   13   18 ar
    21   13   14 ar
    22   14   15 ar
    23   14   29 1
    24   15   16 ar
    25   15   30 1
    26   16   17 ar
    27   16   31 1
    28   17   18 ar
    29   17   32 1
    30   18   19 1
    31   19   20 1
    32   19   33 1
    33   19   34 1
    34   20   35 1
    35   20   36 1
    36   21   22 1
    37   22   23 1
    38   22   37 1
    39   22   38 1
    40   23   24 3
@<TRIPOS>MOLECULE
ZINC29009023
   42    44     0     0     0
SMALL
USER_CHARGES
5-[(2-hydroxy-4,4-dimethyl-6-oxo-cyclohexen-1-yl)methyleneamino]-1-phenyl-pyrazole-4-carbonitrile
@<TRIPOS>ATOM
      1 C1          7.7374    4.4605    3.4437 C.3       1 <0>        -0.1485
      2 C2          7.7411    2.9453    3.2315 C.3       1 <0>        -0.0530
      3 C3          7.8746    2.6392    1.7409 C.3       1 <0>        -0.1165
      4 C4          6.6583    3.0867    0.9844 C.2       1 <0>         0.3485
      5 C5          5.4394    3.2818    1.5922 C.2       1 <0>        -0.4529
      6 C6          5.2923    3.0517    3.0347 C.2       1 <0>         0.4106
      7 O1          4.2969    3.4097    3.6296 O.2       1 <0>        -0.4844
      8 C7          6.4263    2.3514    3.7543 C.3       1 <0>        -0.1539
      9 C8          4.2858    3.7139    0.7981 C.2       1 <0>         0.3252
     10 N1          3.1243    3.8946    1.3752 N.2       1 <0>        -0.5516
     11 C9          2.0612    4.2928    0.6434 C.2       1 <0>         0.3923
     12 C10         1.6714    5.6129    0.3867 C.2       1 <0>        -0.2511
     13 C11         0.5091    5.5524   -0.4115 C.2       1 <0>         0.1203
     14 N2          0.2181    4.2992   -0.6276 N.2       1 <0>        -0.3070
     15 N3          1.1619    3.4861    0.0092 N.pl3     1 <0>        -0.3442
     16 C12         1.1774    2.0861    0.0020 C.ar      1 <0>         0.1660
     17 C13        -0.0167    1.3769    0.0096 C.ar      1 <0>        -0.1147
     18 C14         0.0021   -0.0041    0.0020 C.ar      1 <0>        -0.1080
     19 C15         1.2081   -0.6806   -0.0131 C.ar      1 <0>        -0.1278
     20 C16         2.3987    0.0226   -0.0207 C.ar      1 <0>        -0.0963
     21 C17         2.3869    1.4036   -0.0127 C.ar      1 <0>        -0.1192
     22 C18         2.3249    6.7994    0.8511 C.1       1 <0>         0.3117
     23 N4          2.8433    7.7407    1.2195 N.1       1 <0>        -0.4590
     24 O2          6.7648    3.3101   -0.3347 O.3       1 <0>        -0.6477
     25 C19         8.9179    2.3263    3.9885 C.3       1 <0>        -0.1393
     26 H1          8.6801    4.8855    3.0687 H         1 <0>         0.0532
     27 H2          7.6373    4.6802    4.5169 H         1 <0>         0.0520
     28 H3          6.8921    4.9051    2.8980 H         1 <0>         0.0670
     29 H4          8.7525    3.1639    1.3360 H         1 <0>         0.0805
     30 H5          7.9974    1.5554    1.5987 H         1 <0>         0.0841
     31 H6          6.4040    1.2713    3.5473 H         1 <0>         0.0844
     32 H7          6.3543    2.5184    4.8392 H         1 <0>         0.0758
     33 H8          4.3957    3.8864   -0.2827 H         1 <0>         0.1000
     34 H9         -0.0461    6.4015   -0.7819 H         1 <0>         0.1921
     35 H10        -0.9589    1.9047    0.0169 H         1 <0>         0.1312
     36 H11        -0.9261   -0.5562    0.0076 H         1 <0>         0.1275
     37 H12         1.2200   -1.7605   -0.0187 H         1 <0>         0.1249
     38 H13         3.3389   -0.5087   -0.0326 H         1 <0>         0.1308
     39 H14         3.3171    1.9522   -0.0187 H         1 <0>         0.1327
     40 H15         8.9200    1.2370    3.8356 H         1 <0>         0.0547
     41 H16         8.8195    2.5457    5.0619 H         1 <0>         0.0546
     42 H17         9.8602    2.7512    3.6122 H         1 <0>         0.0551
@<TRIPOS>BOND
     1    1    2 1
     2    1   26 1
     3    1   27 1
     4    1   28 1
     5    2    8 1
     6    2    3 1
     7    2   25 1
     8    3    4 1
     9    3   29 1
    10    3   30 1
    11    4    5 2
    12    4   24 1
    13    5    6 1
    14    5    9 1
    15    6    7 2
    16    6    8 1
    17    8   31 1
    18    8   32 1
    19    9   10 2
    20    9   33 1
    21   10   11 1
    22   11   15 1
    23   11   12 2
    24   12   13 1
    25   12   22 1
    26   13   14 2
    27   13   34 1
    28   14   15 1
    29   15   16 1
    30   16   21 ar
    31   16   17 ar
    32   17   18 ar
    33   17   35 1
    34   18   19 ar
    35   18   36 1
    36   19   20 ar
    37   19   37 1
    38   20   21 ar
    39   20   38 1
    40   21   39 1
    41   22   23 3
    42   25   40 1
    43   25   41 1
    44   25   42 1
@<TRIPOS>MOLECULE
ZINC09228234
   33    35     0     0     0
SMALL
USER_CHARGES

@<TRIPOS>ATOM
      1 C1         -0.0184    1.5028    0.0103 C.3       1 <0>        -0.0858
      2 C2          0.0021   -0.0041    0.0020 C.2       1 <0>         0.1101
      3 C3          0.0080   -0.8174   -1.1379 C.2       1 <0>        -0.2705
      4 C4          0.0280   -2.1189   -0.7265 C.2       1 <0>         0.1704
      5 O1          0.0344   -2.1208    0.6208 O.3       1 <0>        -0.0707
      6 N1          0.0230   -0.7734    1.0558 N.2       1 <0>        -0.3185
      7 C5          0.0404   -3.3041   -1.5963 C.2       1 <0>        -0.1380
      8 C6          0.0549   -4.6419   -1.2467 C.2       1 <0>        -0.1237
      9 C7          0.0638   -5.5807   -2.2517 C.2       1 <0>        -0.0487
     10 C8          0.0581   -5.1687   -3.5465 C.2       1 <0>        -0.6604
     11 S1          0.0326   -3.3917   -3.3795 S.3       1 <0>         0.2392
     12 S2          0.0673   -6.1410   -5.0160 S.o2      1 <0>         2.6304
     13 O2          0.6082   -5.3205   -6.0424 O.2       1 <0>        -1.0115
     14 O3          0.6322   -7.3976   -4.6680 O.2       1 <0>        -1.0085
     15 N2         -1.5120   -6.4284   -5.4228 N.2       1 <0>        -1.0748
     16 C9         -1.8134   -7.1807   -6.5544 C.ar      1 <0>         0.3100
     17 C10        -0.7861   -7.6954   -7.3398 C.ar      1 <0>        -0.2708
     18 C11        -1.0805   -8.4398   -8.4596 C.ar      1 <0>        -0.0065
     19 C12        -2.4133   -8.6786   -8.8077 C.ar      1 <0>        -0.1595
     20 C13        -3.4428   -8.1601   -8.0165 C.ar      1 <0>        -0.0242
     21 C14        -3.1412   -7.4213   -6.8949 C.ar      1 <0>        -0.1824
     22 C15        -2.7233   -9.4522   -9.9722 C.1       1 <0>         0.2854
     23 N3         -2.9693  -10.0658  -10.8960 N.1       1 <0>        -0.4832
     24 H1          1.0042    1.8801    0.0026 H         1 <0>         0.0907
     25 H2         -0.5455    1.8639   -0.8728 H         1 <0>         0.0899
     26 H3         -0.5286    1.8543    0.9071 H         1 <0>         0.0825
     27 H4         -0.0019   -0.4752   -2.1622 H         1 <0>         0.1645
     28 H5          0.0596   -4.9423   -0.2093 H         1 <0>         0.1485
     29 H6          0.0756   -6.6343   -2.0142 H         1 <0>         0.1547
     30 H7          0.2433   -7.5102   -7.0705 H         1 <0>         0.1066
     31 H8         -0.2829   -8.8385   -9.0688 H         1 <0>         0.1138
     32 H9         -4.4735   -8.3428   -8.2826 H         1 <0>         0.1164
     33 H10        -3.9360   -7.0245   -6.2806 H         1 <0>         0.1244
@<TRIPOS>BOND
     1    1    2 1
     2    1   24 1
     3    1   25 1
     4    1   26 1
     5    2    6 2
     6    2    3 1
     7    3    4 2
     8    3   27 1
     9    4    5 1
    10    4    7 1
    11    5    6 1
    12    7   11 1
    13    7    8 2
    14    8    9 1
    15    8   28 1
    16    9   10 2
    17    9   29 1
    18   10   11 1
    19   10   12 1
    20   12   13 2
    21   12   14 2
    22   12   15 1
    23   15   16 1
    24   16   21 ar
    25   16   17 ar
    26   17   18 ar
    27   17   30 1
    28   18   19 ar
    29   18   31 1
    30   19   20 ar
    31   19   22 1
    32   20   21 ar
    33   20   32 1
    34   21   33 1
    35   22   23 3
@<TRIPOS>MOLECULE
ZINC49513962
   36    37     0     0     0
SMALL
USER_CHARGES

@<TRIPOS>ATOM
      1 C1         -0.0187    1.5258    0.0104 C.3       1 <0>        -0.1361
      2 C2          0.0021   -0.0041    0.0020 C.3       1 <0>        -0.0538
      3 H1          0.5293   -0.3651    0.8851 H         1 <0>         0.1193
      4 C3         -1.4117   -0.5257    0.0127 C.2       1 <0>         0.5075
      5 O1         -2.0205   -0.8485   -1.1473 O.3       1 <0>        -0.7018
      6 N1         -2.0401   -0.6636    1.1313 N.2       1 <0>        -1.0593
      7 S1         -3.5937   -1.2368    1.1431 S.o2      1 <0>         2.5766
      8 O2         -4.3481   -0.2539    0.4473 O.2       1 <0>        -1.0016
      9 O3         -3.4947   -2.5628    0.6420 O.2       1 <0>        -0.9961
     10 C4         -4.0672   -1.2642    2.8939 C.3       1 <0>        -0.5691
     11 C5         -3.0463   -2.0838    3.6856 C.3       1 <0>        -0.0972
     12 C6         -3.4457   -2.1069    5.1624 C.3       1 <0>        -0.1122
     13 C7         -4.8306   -2.7411    5.3063 C.3       1 <0>        -0.1214
     14 C8         -5.8516   -1.9215    4.5146 C.3       1 <0>        -0.1085
     15 C9         -5.4522   -1.8984    3.0378 C.3       1 <0>        -0.1088
     16 S2          0.8511   -0.5891   -1.4904 S.3       1 <0>         0.1283
     17 C10         2.5089   -0.0285   -1.2851 C.2       1 <0>         0.0455
     18 N2          3.0621    0.6563   -0.2921 N.2       1 <0>        -0.3049
     19 N3          4.2811    0.9796   -0.3061 N.2       1 <0>        -0.2669
     20 C11         5.0810    0.6600   -1.3031 C.2       1 <0>         0.0238
     21 S3          3.9327   -0.2262   -2.3529 S.3       1 <0>        -0.0140
     22 H2          1.0039    1.9031    0.0027 H         1 <0>         0.0692
     23 H3         -0.5459    1.8868   -0.8726 H         1 <0>         0.0661
     24 H4         -0.5289    1.8773    0.9072 H         1 <0>         0.0783
     25 H5         -4.0925   -0.2450    3.2795 H         1 <0>         0.1254
     26 H6         -3.0210   -3.1030    3.3001 H         1 <0>         0.0714
     27 H7         -2.0596   -1.6320    3.5831 H         1 <0>         0.0889
     28 H8         -2.7183   -2.6908    5.7264 H         1 <0>         0.0627
     29 H9         -3.4709   -1.0877    5.5479 H         1 <0>         0.0618
     30 H10        -4.8053   -3.7603    4.9208 H         1 <0>         0.0624
     31 H11        -5.1152   -2.7575    6.3584 H         1 <0>         0.0590
     32 H12        -6.8382   -2.3733    4.6171 H         1 <0>         0.0627
     33 H13        -5.8768   -0.9023    4.9001 H         1 <0>         0.0631
     34 H14        -6.1795   -1.3145    2.4738 H         1 <0>         0.0705
     35 H15        -5.4269   -2.9176    2.6523 H         1 <0>         0.0748
     36 H16         6.1311    0.8689   -1.4445 H         1 <0>         0.2343
@<TRIPOS>BOND
     1    1    2 1
     2    1   22 1
     3    1   23 1
     4    1   24 1
     5    2    3 1
     6    2    4 1
     7    2   16 1
     8    4    5 1
     9    4    6 2
    10    6    7 1
    11    7    8 2
    12    7    9 2
    13    7   10 1
    14   10   15 1
    15   10   11 1
    16   10   25 1
    17   11   12 1
    18   11   26 1
    19   11   27 1
    20   12   13 1
    21   12   28 1
    22   12   29 1
    23   13   14 1
    24   13   30 1
    25   13   31 1
    26   14   15 1
    27   14   32 1
    28   14   33 1
    29   15   34 1
    30   15   35 1
    31   16   17 1
    32   17   21 1
    33   17   18 2
    34   18   19 1
    35   19   20 2
    36   20   21 1
    37   20   36 1
@<TRIPOS>MOLECULE
ZINC63795486
   32    34     0     0     0
SMALL
USER_CHARGES

@<TRIPOS>ATOM
      1 C1         -0.0184    1.5028    0.0103 C.3       1 <0>        -0.0937
      2 C2          0.0021   -0.0041    0.0020 C.2       1 <0>        -0.1082
      3 C3          0.0091   -0.8207   -1.0538 C.2       1 <0>        -0.0534
      4 N1          0.0281   -2.1135   -0.6607 N.2       1 <0>        -0.1489
      5 N2          0.0351   -2.2769    0.5619 N.2       1 <0>        -0.1502
      6 C4          0.0262   -0.9460    1.1928 C.3       1 <0>         0.0535
      7 H1         -0.8670   -0.8174    1.8042 H         1 <0>         0.1620
      8 C5          1.2715   -0.7344    2.0146 C.2       1 <0>        -0.1269
      9 C6          1.4246   -0.0413    3.1694 C.2       1 <0>        -0.1559
     10 C7          2.6755    0.0182    3.7546 C.2       1 <0>        -0.0400
     11 C8          3.7120   -0.6182    3.1565 C.2       1 <0>        -0.6740
     12 S1          2.9263   -1.3381    1.7241 S.3       1 <0>         0.1857
     13 S2          5.3964   -0.7155    3.6644 S.o2      1 <0>         2.6631
     14 O1          6.1588   -0.9795    2.4946 O.2       1 <0>        -1.0004
     15 O2          5.6371    0.4147    4.4915 O.2       1 <0>        -0.9989
     16 N3          5.5393   -2.0505    4.6337 N.2       1 <0>        -1.0279
     17 C9          6.7683   -2.3790    5.1841 C.2       1 <0>         0.3997
     18 N4          7.9173   -1.7509    5.0531 N.2       1 <0>        -0.6657
     19 C10         9.0096   -2.1962    5.6486 C.2       1 <0>         0.0993
     20 C11         8.8899   -3.3208    6.3941 C.2       1 <0>        -0.3439
     21 S3          7.1519   -3.6739    6.1884 S.3       1 <0>         0.0175
     22 C12        -0.0027   -0.3630   -2.4896 C.3       1 <0>        -0.0829
     23 H2          1.0042    1.8801    0.0026 H         1 <0>         0.0884
     24 H3         -0.5455    1.8639   -0.8728 H         1 <0>         0.0815
     25 H4         -0.5286    1.8543    0.9071 H         1 <0>         0.0783
     26 H5          0.5820    0.4573    3.6252 H         1 <0>         0.1407
     27 H6          2.8247    0.5640    4.6745 H         1 <0>         0.1496
     28 H7          9.9560   -1.6862    5.5453 H         1 <0>         0.1466
     29 H8          9.6389   -3.8548    6.9600 H         1 <0>         0.1716
     30 H9          1.0220   -0.2388   -2.8397 H         1 <0>         0.0799
     31 H10        -0.5089   -1.1075   -3.1041 H         1 <0>         0.0783
     32 H11        -0.5298    0.5882   -2.5634 H         1 <0>         0.0754
@<TRIPOS>BOND
     1    1    2 1
     2    1   23 1
     3    1   24 1
     4    1   25 1
     5    2    6 1
     6    2    3 2
     7    3    4 1
     8    3   22 1
     9    4    5 2
    10    5    6 1
    11    6    7 1
    12    6    8 1
    13    8   12 1
    14    8    9 2
    15    9   10 1
    16    9   26 1
    17   10   11 2
    18   10   27 1
    19   11   12 1
    20   11   13 1
    21   13   14 2
    22   13   15 2
    23   13   16 1
    24   16   17 1
    25   17   21 1
    26   17   18 2
    27   18   19 1
    28   19   20 2
    29   19   28 1
    30   20   21 1
    31   20   29 1
    32   22   30 1
    33   22   31 1
    34   22   32 1
@<TRIPOS>MOLECULE
ZINC66690310
   45    48     0     0     0
SMALL
USER_CHARGES

@<TRIPOS>ATOM
      1 C1          5.6097  -10.6713   -1.0264 C.3       1 <0>         0.0527
      2 N1          4.3249   -9.9700   -0.9662 N.pl3     1 <0>        -0.4951
      3 C2          4.1708   -8.9344   -0.1131 C.2       1 <0>         0.5012
      4 O1          5.1812   -8.5390    0.6808 O.3       1 <0>        -0.6074
      5 C3          2.9223   -8.2776   -0.0766 C.ar      1 <0>        -0.2199
      6 C4          2.6869   -7.1946    0.7823 C.ar      1 <0>        -0.0103
      7 C5          1.4689   -6.5860    0.7888 C.ar      1 <0>        -0.1446
      8 C6          0.4398   -7.0292   -0.0564 C.ar      1 <0>        -0.0731
      9 C7          0.6429   -8.0966   -0.9156 C.ar      1 <0>        -0.1129
     10 C8          1.8906   -8.7365   -0.9369 C.ar      1 <0>         0.2145
     11 N2          2.1323   -9.7727   -1.7523 N.2       1 <0>        -0.5543
     12 C9          3.3180  -10.3623   -1.7643 C.2       1 <0>         0.5042
     13 S1          3.5749  -11.6766   -2.8308 S.2       1 <0>        -0.7090
     14 C10        -0.8761   -6.3495   -0.0290 C.2       1 <0>         0.5701
     15 O2         -0.9335   -5.1410    0.0839 O.2       1 <0>        -0.5297
     16 N3         -2.0098   -7.0716   -0.1291 N.am      1 <0>        -0.6122
     17 C11        -3.3208   -6.4121   -0.2375 C.3       1 <0>         0.0759
     18 C12        -4.2595   -7.0280    0.8063 C.3       1 <0>         0.0506
     19 O3         -4.2509   -8.4507    0.6657 O.3       1 <0>        -0.3706
     20 C13        -2.9774   -9.0547    0.9047 C.3       1 <0>         0.1251
     21 H1         -2.6322   -8.7930    1.9049 H         1 <0>         0.0773
     22 C14        -1.9725   -8.5426   -0.1396 C.3       1 <0>         0.0743
     23 C15        -3.1013  -10.5523    0.7909 C.ar      1 <0>        -0.1216
     24 C16        -4.1052  -11.1063    0.0190 C.ar      1 <0>        -0.0624
     25 C17        -4.2190  -12.4799   -0.0856 C.ar      1 <0>        -0.1335
     26 C18        -3.3291  -13.3012    0.5816 C.ar      1 <0>        -0.0849
     27 C19        -2.3245  -12.7497    1.3535 C.ar      1 <0>        -0.1523
     28 C20        -2.2062  -11.3737    1.4548 C.ar      1 <0>         0.1134
     29 F1         -1.2215  -10.8332    2.2054 F         1 <0>        -0.1339
     30 H2          5.5539  -11.4691   -1.7671 H         1 <0>         0.1289
     31 H3          6.3943   -9.9688   -1.3076 H         1 <0>         0.0700
     32 H4          5.8370  -11.0978   -0.0494 H         1 <0>         0.0700
     33 H5          3.4703   -6.8440    1.4379 H         1 <0>         0.1374
     34 H6          1.2925   -5.7525    1.4525 H         1 <0>         0.1300
     35 H7         -0.1529   -8.4333   -1.5634 H         1 <0>         0.1388
     36 H8         -3.2113   -5.3443   -0.0480 H         1 <0>         0.1046
     37 H9         -3.7290   -6.5684   -1.2360 H         1 <0>         0.0793
     38 H10        -3.9190   -6.7589    1.8061 H         1 <0>         0.0581
     39 H11        -5.2713   -6.6531    0.6522 H         1 <0>         0.1106
     40 H12        -2.2473   -8.9097   -1.1285 H         1 <0>         0.0868
     41 H13        -0.9698   -8.8862    0.1146 H         1 <0>         0.1128
     42 H14        -4.8010  -10.4657   -0.5024 H         1 <0>         0.1395
     43 H15        -5.0040  -12.9118   -0.6887 H         1 <0>         0.1306
     44 H16        -3.4195  -14.3743    0.4997 H         1 <0>         0.1332
     45 H17        -1.6297  -13.3915    1.8748 H         1 <0>         0.1379
@<TRIPOS>BOND
     1    1    2 1
     2    1   30 1
     3    1   31 1
     4    1   32 1
     5    2   12 1
     6    2    3 1
     7    3    4 1
     8    3    5 2
     9    5   10 ar
    10    5    6 ar
    11    6    7 ar
    12    6   33 1
    13    7    8 ar
    14    7   34 1
    15    8    9 ar
    16    8   14 1
    17    9   10 ar
    18    9   35 1
    19   10   11 2
    20   11   12 1
    21   12   13 2
    22   14   15 2
    23   14   16 am
    24   16   22 1
    25   16   17 1
    26   17   18 1
    27   17   36 1
    28   17   37 1
    29   18   19 1
    30   18   38 1
    31   18   39 1
    32   19   20 1
    33   20   21 1
    34   20   22 1
    35   20   23 1
    36   22   40 1
    37   22   41 1
    38   23   28 ar
    39   23   24 ar
    40   24   25 ar
    41   24   42 1
    42   25   26 ar
    43   25   43 1
    44   26   27 ar
    45   26   44 1
    46   27   28 ar
    47   27   45 1
    48   28   29 1
@<TRIPOS>MOLECULE
ZINC33297600
   40    42     0     0     0
SMALL
USER_CHARGES
N-(3,5-dimethoxyphenyl)-4-(4-methylthiazol-2-yl)thiophene-2-sulfonamide
@<TRIPOS>ATOM
      1 C1         -8.9056  -11.7138   -0.2658 C.3       1 <0>        -0.0813
      2 C2         -8.2217  -10.3713   -0.2308 C.2       1 <0>         0.0595
      3 C3         -8.9597   -9.2320   -0.2459 C.2       1 <0>        -0.2227
      4 S1         -7.6656   -7.9988   -0.1919 S.3       1 <0>         0.0104
      5 C4         -6.2843   -9.1334   -0.1551 C.2       1 <0>         0.1974
      6 N1         -6.9100  -10.3021   -0.1861 N.2       1 <0>        -0.5101
      7 C5         -4.8355   -8.8460   -0.1044 C.2       1 <0>        -0.0804
      8 C6         -4.3687   -7.5334   -0.0774 C.2       1 <0>        -0.0387
      9 C7         -3.0367   -7.3117   -0.0311 C.2       1 <0>        -0.6823
     10 S2         -2.3753   -8.9692   -0.0236 S.3       1 <0>         0.1777
     11 C8         -3.9191   -9.8634   -0.0770 C.2       1 <0>        -0.1201
     12 S3         -2.1725   -5.7767    0.0105 S.o2      1 <0>         2.6086
     13 O1         -0.8517   -6.0418   -0.4416 O.2       1 <0>        -0.9875
     14 O2         -3.0147   -4.8194   -0.6167 O.2       1 <0>        -1.0215
     15 N2         -2.0477   -5.3281    1.5997 N.2       1 <0>        -1.0702
     16 C9         -3.1986   -5.0398    2.3364 C.ar      1 <0>         0.2853
     17 C10        -3.8670   -3.8388    2.1392 C.ar      1 <0>        -0.2160
     18 C11        -5.0123   -3.5557    2.8672 C.ar      1 <0>         0.1642
     19 C12        -5.4842   -4.4667    3.8005 C.ar      1 <0>        -0.3363
     20 C13        -4.8142   -5.6643    4.0019 C.ar      1 <0>         0.1614
     21 C14        -3.6719   -5.9515    3.2706 C.ar      1 <0>        -0.2143
     22 O3         -5.2779   -6.5567    4.9159 O.3       1 <0>        -0.3201
     23 C15        -6.4598   -6.1956    5.6334 C.3       1 <0>         0.0291
     24 O4         -5.6700   -2.3830    2.6700 O.3       1 <0>        -0.3184
     25 C16        -6.8398   -2.1546    3.4584 C.3       1 <0>         0.0286
     26 H1         -9.9955  -11.5693   -0.3011 H         1 <0>         0.0714
     27 H2         -8.6404  -12.2840    0.6367 H         1 <0>         0.0728
     28 H3         -8.5801  -12.2680   -1.1585 H         1 <0>         0.0724
     29 H4        -10.0317   -9.1053   -0.2809 H         1 <0>         0.1946
     30 H5         -5.0617   -6.7052   -0.0929 H         1 <0>         0.1417
     31 H6         -4.0870  -10.9302   -0.0867 H         1 <0>         0.1966
     32 H7         -3.4971   -3.1273    1.4157 H         1 <0>         0.1265
     33 H8         -6.3740   -4.2436    4.3704 H         1 <0>         0.1192
     34 H9         -3.1506   -6.8843    3.4273 H         1 <0>         0.1209
     35 H10        -6.7232   -7.0008    6.3350 H         1 <0>         0.0917
     36 H11        -7.2866   -6.0420    4.9243 H         1 <0>         0.0489
     37 H12        -6.2793   -5.2660    6.1931 H         1 <0>         0.0501
     38 H13        -7.2707   -1.1760    3.2002 H         1 <0>         0.0925
     39 H14        -6.5713   -2.1671    4.5250 H         1 <0>         0.0492
     40 H15        -7.5779   -2.9449    3.2568 H         1 <0>         0.0491
@<TRIPOS>BOND
     1    1    2 1
     2    1   26 1
     3    1   27 1
     4    1   28 1
     5    2    6 1
     6    2    3 2
     7    3    4 1
     8    3   29 1
     9    4    5 1
    10    5    6 2
    11    5    7 1
    12    7   11 2
    13    7    8 1
    14    8    9 2
    15    8   30 1
    16    9   10 1
    17    9   12 1
    18   10   11 1
    19   11   31 1
    20   12   13 2
    21   12   14 2
    22   12   15 1
    23   15   16 1
    24   16   21 ar
    25   16   17 ar
    26   17   18 ar
    27   17   32 1
    28   18   19 ar
    29   18   24 1
    30   19   20 ar
    31   19   33 1
    32   20   21 ar
    33   20   22 1
    34   21   34 1
    35   22   23 1
    36   23   35 1
    37   23   36 1
    38   23   37 1
    39   24   25 1
    40   25   38 1
    41   25   39 1
    42   25   40 1
@<TRIPOS>MOLECULE
ZINC39379518
   52    54     0     0     0
SMALL
USER_CHARGES

@<TRIPOS>ATOM
      1 C1         -0.1665    1.5201   -0.0819 C.3       1 <0>        -0.1512
      2 C2         -0.1401   -0.0097   -0.0882 C.3       1 <0>        -0.1189
      3 C3          0.6217   -0.5015   -1.3206 C.3       1 <0>        -0.1042
      4 C4          0.6481   -2.0313   -1.3269 C.3       1 <0>        -0.1024
      5 S1          1.5512   -2.6144   -2.7880 S.3       1 <0>        -0.0245
      6 C5          1.4938   -4.3702   -2.6520 C.2       1 <0>         0.4413
      7 N1          0.8558   -4.8791   -1.6080 N.2       1 <0>        -0.6940
      8 C6          0.6097   -6.1859   -1.4995 C.2       1 <0>         0.5318
      9 O1          0.0304   -6.6507   -0.5366 O.2       1 <0>        -0.4827
     10 C7          1.0896   -7.0588   -2.6388 C.3       1 <0>        -0.2302
     11 H1          0.2110   -7.4377   -3.1610 H         1 <0>         0.1106
     12 C8          1.8345   -8.2581   -2.0661 C.3       1 <0>         0.0676
     13 H2          2.6525   -7.9130   -1.4336 H         1 <0>         0.0627
     14 C9          2.3885   -9.0736   -3.2124 C.2       1 <0>        -0.3715
     15 C10         2.8211   -8.4316   -4.3638 C.2       1 <0>         0.2915
     16 N2          2.7055   -7.1203   -4.4965 N.2       1 <0>        -0.6024
     17 C11         1.9842   -6.3919   -3.6618 C.2       1 <0>         0.4939
     18 N3          2.0901   -5.0771   -3.6090 N.2       1 <0>        -0.6168
     19 C12         3.4320   -9.2397   -5.4795 C.3       1 <0>        -0.1050
     20 C13         2.4640  -10.4496   -3.1137 C.2       1 <0>         0.4755
     21 O2          2.1792  -11.0575   -1.9464 O.3       1 <0>        -0.5976
     22 O3          2.8224  -11.1827   -4.1848 O.3       1 <0>        -0.3314
     23 C14         2.8797  -12.6000   -4.0112 C.3       1 <0>         0.0355
     24 C15         0.8868   -9.1010   -1.2523 C.ar      1 <0>         0.0153
     25 C16        -0.2264   -9.6623   -1.8499 C.ar      1 <0>        -0.1114
     26 C17        -1.0957  -10.4353   -1.1036 C.ar      1 <0>        -0.1168
     27 C18        -0.8518  -10.6477    0.2407 C.ar      1 <0>        -0.1371
     28 C19         0.2616  -10.0874    0.8379 C.ar      1 <0>        -0.0858
     29 C20         1.1334   -9.3176    0.0903 C.ar      1 <0>        -0.0820
     30 C21         0.5272  -10.3185    2.3032 C.3       1 <0>        -0.1057
     31 H3          0.8544    1.9010   -0.0540 H         1 <0>         0.0540
     32 H4         -0.6635    1.8786   -0.9833 H         1 <0>         0.0538
     33 H5         -0.7092    1.8705    0.7960 H         1 <0>         0.0533
     34 H6          0.3569   -0.3682    0.8132 H         1 <0>         0.0648
     35 H7         -1.1610   -0.3906   -0.1162 H         1 <0>         0.0645
     36 H8          0.1246   -0.1430   -2.2220 H         1 <0>         0.0702
     37 H9          1.6426   -0.1206   -1.2927 H         1 <0>         0.0710
     38 H10         1.1451   -2.3898   -0.4255 H         1 <0>         0.0933
     39 H11        -0.3728   -2.4121   -1.3549 H         1 <0>         0.0915
     40 H12         2.6798   -9.9086   -5.8977 H         1 <0>         0.0886
     41 H13         3.7944   -8.5684   -6.2581 H         1 <0>         0.0719
     42 H14         4.2637   -9.8266   -5.0898 H         1 <0>         0.0817
     43 H15         3.6054  -12.8418   -3.2346 H         1 <0>         0.0540
     44 H16         1.8973  -12.9702   -3.7183 H         1 <0>         0.0542
     45 H17         3.1803  -13.0690   -4.9481 H         1 <0>         0.0885
     46 H18        -0.4170   -9.4964   -2.9000 H         1 <0>         0.0992
     47 H19        -1.9657  -10.8732   -1.5703 H         1 <0>         0.1058
     48 H20        -1.5314  -11.2512    0.8240 H         1 <0>         0.1059
     49 H21         2.0054   -8.8829    0.5562 H         1 <0>         0.1010
     50 H22         1.1376  -11.2133    2.4251 H         1 <0>         0.0615
     51 H23         1.0553   -9.4593    2.7167 H         1 <0>         0.0593
     52 H24        -0.4192  -10.4501    2.8277 H         1 <0>         0.0578
@<TRIPOS>BOND
     1    1    2 1
     2    1   31 1
     3    1   32 1
     4    1   33 1
     5    2    3 1
     6    2   34 1
     7    2   35 1
     8    3    4 1
     9    3   36 1
    10    3   37 1
    11    4    5 1
    12    4   38 1
    13    4   39 1
    14    5    6 1
    15    6   18 1
    16    6    7 2
    17    7    8 1
    18    8    9 2
    19    8   10 1
    20   10   11 1
    21   10   17 1
    22   10   12 1
    23   12   13 1
    24   12   14 1
    25   12   24 1
    26   14   15 1
    27   14   20 2
    28   15   16 2
    29   15   19 1
    30   16   17 1
    31   17   18 2
    32   19   40 1
    33   19   41 1
    34   19   42 1
    35   20   21 1
    36   20   22 1
    37   22   23 1
    38   23   43 1
    39   23   44 1
    40   23   45 1
    41   24   29 ar
    42   24   25 ar
    43   25   26 ar
    44   25   46 1
    45   26   27 ar
    46   26   47 1
    47   27   28 ar
    48   27   48 1
    49   28   29 ar
    50   28   30 1
    51   29   49 1
    52   30   50 1
    53   30   51 1
    54   30   52 1
@<TRIPOS>MOLECULE
ZINC48461100
   36    38     0     0     0
SMALL
USER_CHARGES

@<TRIPOS>ATOM
      1 C1         -0.0167    1.3784    0.0096 C.ar      1 <0>        -0.1676
      2 C2          1.1698    2.0883    0.0021 C.ar      1 <0>        -0.0863
      3 C3          2.3773    1.4175   -0.0134 C.ar      1 <0>        -0.1588
      4 C4          2.3989    0.0304   -0.0210 C.ar      1 <0>         0.1394
      5 C5          1.2070   -0.6796   -0.0130 C.ar      1 <0>        -0.2072
      6 C6          0.0021   -0.0041    0.0020 C.ar      1 <0>        -0.0791
      7 O1          3.5855   -0.6319   -0.0368 O.3       1 <0>        -0.3162
      8 C7          3.5315   -2.0598   -0.0438 C.3       1 <0>         0.1417
      9 C8          4.9322   -2.6155   -0.0612 C.2       1 <0>        -0.1395
     10 C9          6.1279   -1.8763   -0.0634 C.2       1 <0>        -0.2010
     11 C10         7.1435   -2.7652   -0.0803 C.2       1 <0>        -0.0426
     12 O2          6.6314   -4.0041   -0.0884 O.3       1 <0>        -0.1414
     13 C11         5.2850   -3.9321   -0.0719 C.2       1 <0>         0.0377
     14 C12         4.3592   -5.0743   -0.0691 C.2       1 <0>         0.5590
     15 O3          3.0227   -4.8620   -0.0550 O.3       1 <0>        -0.6873
     16 N1          4.8258   -6.2920   -0.0804 N.2       1 <0>        -1.0457
     17 S1          3.7831   -7.5785   -0.0773 S.o2      1 <0>         2.6815
     18 O4          3.1115   -7.5539    1.1748 O.2       1 <0>        -0.9870
     19 O5          3.0874   -7.5403   -1.3158 O.2       1 <0>        -0.9890
     20 C13         4.7625   -9.0431   -0.0948 C.2       1 <0>        -0.6835
     21 C14         5.2423   -9.7610    0.9494 C.2       1 <0>        -0.0305
     22 C15         5.9980  -10.8909    0.6958 C.2       1 <0>        -0.1620
     23 C16         6.2363  -11.2466   -0.5914 C.2       1 <0>        -0.1128
     24 S2          5.3733   -9.9700   -1.4929 S.3       1 <0>         0.2073
     25 Cl1         7.1399  -12.5967   -1.2032 Cl        1 <0>         0.0153
     26 H1         -0.9596    1.9047    0.0260 H         1 <0>         0.1190
     27 H2          1.1525    3.1682    0.0080 H         1 <0>         0.1242
     28 H3          3.3038    1.9724   -0.0200 H         1 <0>         0.1272
     29 H4          1.2211   -1.7595   -0.0193 H         1 <0>         0.1374
     30 H5         -0.9260   -0.5563    0.0082 H         1 <0>         0.1232
     31 H6          3.0134   -2.4083    0.8497 H         1 <0>         0.0843
     32 H7          2.9951   -2.3988   -0.9302 H         1 <0>         0.0844
     33 H8          6.2171   -0.8001   -0.0538 H         1 <0>         0.1516
     34 H9          8.1951   -2.5191   -0.0867 H         1 <0>         0.2028
     35 H10         5.0378   -9.4551    1.9648 H         1 <0>         0.1545
     36 H11         6.3927  -11.4808    1.5099 H         1 <0>         0.1471
@<TRIPOS>BOND
     1    1    6 ar
     2    1    2 ar
     3    1   26 1
     4    2    3 ar
     5    2   27 1
     6    3    4 ar
     7    3   28 1
     8    4    5 ar
     9    4    7 1
    10    5    6 ar
    11    5   29 1
    12    6   30 1
    13    7    8 1
    14    8    9 1
    15    8   31 1
    16    8   32 1
    17    9   13 2
    18    9   10 1
    19   10   11 2
    20   10   33 1
    21   11   12 1
    22   11   34 1
    23   12   13 1
    24   13   14 1
    25   14   15 1
    26   14   16 2
    27   16   17 1
    28   17   18 2
    29   17   19 2
    30   17   20 1
    31   20   24 1
    32   20   21 2
    33   21   22 1
    34   21   35 1
    35   22   23 2
    36   22   36 1
    37   23   24 1
    38   23   25 1
@<TRIPOS>MOLECULE
ZINC64845756
   48    50     0     0     0
SMALL
USER_CHARGES

@<TRIPOS>ATOM
      1 C1          1.9311    1.6011    0.7104 C.3       1 <0>        -0.1490
      2 C2          2.0062    0.0789    0.5749 C.3       1 <0>         0.0593
      3 O1          1.8741   -0.2840   -0.8009 O.3       1 <0>        -0.3290
      4 C3          1.9197   -1.6106   -1.0967 C.ar      1 <0>         0.0131
      5 C4          2.0825   -2.5418   -0.0817 C.ar      1 <0>        -0.1561
      6 C5          2.1289   -3.8893   -0.3812 C.ar      1 <0>        -0.1485
      7 C6          2.0126   -4.3117   -1.6988 C.ar      1 <0>         0.2587
      8 C7          1.8497   -3.3787   -2.7143 C.ar      1 <0>        -0.2311
      9 C8          1.7978   -2.0320   -2.4125 C.ar      1 <0>        -0.0900
     10 N1          2.0600   -5.6767   -2.0032 N.2       1 <0>        -1.0781
     11 S1          1.9212   -6.1799   -3.5748 S.o2      1 <0>         2.6085
     12 O2          0.6028   -5.8520   -3.9913 O.2       1 <0>        -1.0164
     13 O3          3.0752   -5.7071   -4.2560 O.2       1 <0>        -1.0300
     14 C9          2.0248   -7.9389   -3.5697 C.2       1 <0>        -0.6344
     15 C10         3.1898   -8.5850   -3.7983 C.2       1 <0>        -0.0488
     16 S2          2.7087  -10.2959   -3.6744 S.3       1 <0>         0.1738
     17 C11         1.0742  -10.0963   -3.3431 C.2       1 <0>        -0.2027
     18 C12         0.9087   -8.7419   -3.3234 C.2       1 <0>        -0.0116
     19 C13        -0.4137   -8.1423   -3.0547 C.2       1 <0>         0.1453
     20 C14        -1.5611   -8.3821   -3.7490 C.2       1 <0>        -0.2457
     21 C15        -2.5835   -7.6167   -3.1730 C.2       1 <0>         0.0967
     22 N2         -2.0794   -6.9438   -2.1754 N.2       1 <0>        -0.3152
     23 O4         -0.7038   -7.2646   -2.0759 O.3       1 <0>        -0.0325
     24 C16        -4.0196   -7.5771   -3.6281 C.3       1 <0>        -0.0787
     25 C17        -1.7051   -9.3077   -4.9295 C.3       1 <0>        -0.0748
     26 C18         0.0347  -11.1633   -3.1150 C.3       1 <0>        -0.0677
     27 C19         4.5506   -8.0050   -4.0860 C.3       1 <0>        -0.1114
     28 H1          2.7369    2.0572    0.1353 H         1 <0>         0.0614
     29 H2          0.9710    1.9525    0.3325 H         1 <0>         0.0615
     30 H3          2.0319    1.8778    1.7598 H         1 <0>         0.0695
     31 H4          2.9663   -0.2726    0.9528 H         1 <0>         0.0520
     32 H5          1.2004   -0.3772    1.1500 H         1 <0>         0.0520
     33 H6          2.1733   -2.2131    0.9430 H         1 <0>         0.1098
     34 H7          2.2560   -4.6142    0.4092 H         1 <0>         0.1144
     35 H8          1.7591   -3.7064   -3.7395 H         1 <0>         0.1007
     36 H9          1.6663   -1.3065   -3.2017 H         1 <0>         0.1092
     37 H10        -4.5887   -8.3436   -3.1022 H         1 <0>         0.0823
     38 H11        -4.4429   -6.5966   -3.4101 H         1 <0>         0.0783
     39 H12        -4.0659   -7.7624   -4.7013 H         1 <0>         0.0817
     40 H13        -2.0597  -10.2801   -4.5877 H         1 <0>         0.0634
     41 H14        -2.4214   -8.8874   -5.6355 H         1 <0>         0.0653
     42 H15        -0.7384   -9.4251   -5.4193 H         1 <0>         0.0622
     43 H16         0.4908  -12.0117   -2.6049 H         1 <0>         0.0746
     44 H17        -0.7708  -10.7605   -2.5011 H         1 <0>         0.0784
     45 H18        -0.3676  -11.4894   -4.0741 H         1 <0>         0.0812
     46 H19         5.0849   -7.8496   -3.1487 H         1 <0>         0.0910
     47 H20         5.1137   -8.6943   -4.7153 H         1 <0>         0.0755
     48 H21         4.4376   -7.0517   -4.6022 H         1 <0>         0.1322
@<TRIPOS>BOND
     1    1    2 1
     2    1   28 1
     3    1   29 1
     4    1   30 1
     5    2    3 1
     6    2   31 1
     7    2   32 1
     8    3    4 1
     9    4    9 ar
    10    4    5 ar
    11    5    6 ar
    12    5   33 1
    13    6    7 ar
    14    6   34 1
    15    7    8 ar
    16    7   10 1
    17    8    9 ar
    18    8   35 1
    19    9   36 1
    20   10   11 1
    21   11   12 2
    22   11   13 2
    23   11   14 1
    24   14   18 1
    25   14   15 2
    26   15   16 1
    27   15   27 1
    28   16   17 1
    29   17   18 2
    30   17   26 1
    31   18   19 1
    32   19   23 1
    33   19   20 2
    34   20   21 1
    35   20   25 1
    36   21   22 2
    37   21   24 1
    38   22   23 1
    39   24   37 1
    40   24   38 1
    41   24   39 1
    42   25   40 1
    43   25   41 1
    44   25   42 1
    45   26   43 1
    46   26   44 1
    47   26   45 1
    48   27   46 1
    49   27   47 1
    50   27   48 1
@<TRIPOS>MOLECULE
ZINC65183760
   37    39     0     0     0
SMALL
USER_CHARGES

@<TRIPOS>ATOM
      1 C1         -0.0187    1.5258    0.0104 C.3       1 <0>        -0.1510
      2 C2          0.0021   -0.0041    0.0020 C.3       1 <0>        -0.0235
      3 C3          0.7074   -0.4901   -1.2379 C.2       1 <0>         0.1268
      4 N1          1.2467    0.2032   -2.1946 N.2       1 <0>        -0.2308
      5 N2          1.8647   -0.4123   -3.2779 N.pl3     1 <0>        -0.2820
      6 C4          2.5257   -0.0528   -4.4460 C.2       1 <0>        -0.4769
      7 C5          2.8891   -1.1838   -5.0757 C.2       1 <0>         0.1388
      8 N3          2.4775   -2.2277   -4.3406 N.2       1 <0>        -0.4357
      9 C6          1.8721   -1.7823   -3.2780 C.2       1 <0>         0.1692
     10 S1          1.0232   -2.1670   -1.7647 S.3       1 <0>         0.0809
     11 C7          3.6317   -1.2650   -6.3845 C.3       1 <0>        -0.1018
     12 S2          2.8326    1.5906   -5.0023 S.o2      1 <0>         2.6262
     13 O1          2.9994    1.5179   -6.4116 O.2       1 <0>        -1.0116
     14 O2          1.8492    2.4159   -4.3931 O.2       1 <0>        -1.0098
     15 N4          4.2938    2.0547   -4.3761 N.2       1 <0>        -1.0641
     16 C8          4.8004    3.3270   -4.6534 C.ar      1 <0>         0.3014
     17 C9          4.0772    4.2059   -5.4495 C.ar      1 <0>        -0.2556
     18 C10         4.5805    5.4629   -5.7214 C.ar      1 <0>        -0.0489
     19 C11         5.8033    5.8474   -5.2022 C.ar      1 <0>        -0.1960
     20 C12         6.5264    4.9754   -4.4093 C.ar      1 <0>        -0.0447
     21 C13         6.0264    3.7180   -4.1288 C.ar      1 <0>        -0.1454
     22 Br1         7.0124    2.5285   -3.0385 Br        1 <0>        -0.0768
     23 C14         6.3492    7.2197   -5.5017 C.3       1 <0>        -0.0887
     24 H1          1.0039    1.9031    0.0027 H         1 <0>         0.0702
     25 H2         -0.5459    1.8868   -0.8726 H         1 <0>         0.0691
     26 H3         -0.5289    1.8773    0.9072 H         1 <0>         0.0731
     27 H4          0.5293   -0.3651    0.8851 H         1 <0>         0.1098
     28 H5         -1.0205   -0.3814    0.0098 H         1 <0>         0.1089
     29 H6          4.7047   -1.2795   -6.1931 H         1 <0>         0.0882
     30 H7          3.3439   -2.1757   -6.9097 H         1 <0>         0.0798
     31 H8          3.3837   -0.3983   -6.9973 H         1 <0>         0.1167
     32 H9          3.1223    3.9064   -5.8557 H         1 <0>         0.1031
     33 H10         4.0186    6.1464   -6.3406 H         1 <0>         0.1080
     34 H11         7.4811    5.2787   -4.0057 H         1 <0>         0.1141
     35 H12         6.0099    7.9202   -4.7386 H         1 <0>         0.0523
     36 H13         7.4386    7.1848   -5.5042 H         1 <0>         0.0532
     37 H14         5.9938    7.5468   -6.4788 H         1 <0>         0.0532
@<TRIPOS>BOND
     1    1    2 1
     2    1   24 1
     3    1   25 1
     4    1   26 1
     5    2    3 1
     6    2   27 1
     7    2   28 1
     8    3   10 1
     9    3    4 2
    10    4    5 1
    11    5    9 1
    12    5    6 1
    13    6    7 2
    14    6   12 1
    15    7    8 1
    16    7   11 1
    17    8    9 2
    18    9   10 1
    19   11   29 1
    20   11   30 1
    21   11   31 1
    22   12   13 2
    23   12   14 2
    24   12   15 1
    25   15   16 1
    26   16   21 ar
    27   16   17 ar
    28   17   18 ar
    29   17   32 1
    30   18   19 ar
    31   18   33 1
    32   19   20 ar
    33   19   23 1
    34   20   21 ar
    35   20   34 1
    36   21   22 1
    37   23   35 1
    38   23   36 1
    39   23   37 1
@<TRIPOS>MOLECULE
ZINC32630349
   37    38     0     0     0
SMALL
USER_CHARGES
2-chloro-5-[(2-cyanophenyl)sulfonylamino]-N,N-dimethyl-benzamide
@<TRIPOS>ATOM
      1 C1         -1.9792    6.0092   -6.1098 C.3       1 <0>         0.0805
      2 N1         -1.7239    5.3466   -4.8283 N.am      1 <0>        -0.6162
      3 C2         -0.3596    4.9558   -4.4648 C.3       1 <0>         0.0523
      4 C3         -2.7441    5.0967   -3.9839 C.2       1 <0>         0.5671
      5 O1         -3.8857    5.3453   -4.3194 O.2       1 <0>        -0.5279
      6 C4         -2.4749    4.5205   -2.6499 C.ar      1 <0>        -0.1039
      7 C5         -1.6571    3.3967   -2.5246 C.ar      1 <0>        -0.1242
      8 C6         -1.4089    2.8623   -1.2703 C.ar      1 <0>         0.2309
      9 C7         -1.9781    3.4421   -0.1419 C.ar      1 <0>        -0.1844
     10 C8         -2.7837    4.5578   -0.2640 C.ar      1 <0>        -0.0849
     11 C9         -3.0379    5.0989   -1.5098 C.ar      1 <0>        -0.0557
     12 Cl1        -4.0558    6.4974   -1.6579 Cl        1 <0>        -0.0850
     13 N2         -0.5907    1.7366   -1.1400 N.2       1 <0>        -1.0529
     14 S1          0.5741    1.6912    0.0362 S.o2      1 <0>         2.5754
     15 O2         -0.0738    2.0037    1.2617 O.2       1 <0>        -1.0304
     16 O3          1.2988    0.4841   -0.1563 O.2       1 <0>        -0.9828
     17 C10         1.6962    3.0098   -0.2907 C.ar      1 <0>        -0.6192
     18 C11         1.8329    4.0419    0.6146 C.ar      1 <0>        -0.0345
     19 C12         2.7166    5.0757    0.3616 C.ar      1 <0>        -0.1184
     20 C13         3.4620    5.0876   -0.8043 C.ar      1 <0>        -0.0893
     21 C14         3.3314    4.0649   -1.7205 C.ar      1 <0>        -0.0997
     22 C15         2.4447    3.0156   -1.4692 C.ar      1 <0>         0.0707
     23 C16         2.3037    1.9507   -2.4162 C.1       1 <0>         0.2309
     24 N3          2.1917    1.1060   -3.1674 N.1       1 <0>        -0.3722
     25 H1         -3.0540    6.2237   -6.2039 H         1 <0>         0.0866
     26 H2         -1.6633    5.3507   -6.9324 H         1 <0>         0.0569
     27 H3         -1.4120    6.9506   -6.1552 H         1 <0>         0.0567
     28 H4         -0.3670    4.4761   -3.4749 H         1 <0>         0.1062
     29 H5          0.2819    5.8489   -4.4347 H         1 <0>         0.0572
     30 H6          0.0307    4.2490   -5.2119 H         1 <0>         0.0608
     31 H7         -1.2192    2.9448   -3.4023 H         1 <0>         0.1296
     32 H8         -1.7866    3.0209    0.8340 H         1 <0>         0.1540
     33 H9         -3.2195    5.0060    0.6166 H         1 <0>         0.1248
     34 H10         1.2514    4.0407    1.5248 H         1 <0>         0.1448
     35 H11         2.8222    5.8794    1.0753 H         1 <0>         0.1307
     36 H12         4.1473    5.8996   -0.9974 H         1 <0>         0.1321
     37 H13         3.9132    4.0757   -2.6303 H         1 <0>         0.1335
@<TRIPOS>BOND
     1    1    2 1
     2    1   25 1
     3    1   26 1
     4    1   27 1
     5    2    3 1
     6    2    4 am
     7    3   28 1
     8    3   29 1
     9    3   30 1
    10    4    5 2
    11    4    6 1
    12    6   11 ar
    13    6    7 ar
    14    7    8 ar
    15    7   31 1
    16    8    9 ar
    17    8   13 1
    18    9   10 ar
    19    9   32 1
    20   10   11 ar
    21   10   33 1
    22   11   12 1
    23   13   14 1
    24   14   15 2
    25   14   16 2
    26   14   17 1
    27   17   22 ar
    28   17   18 ar
    29   18   19 ar
    30   18   34 1
    31   19   20 ar
    32   19   35 1
    33   20   21 ar
    34   20   36 1
    35   21   22 ar
    36   21   37 1
    37   22   23 1
    38   23   24 3
@<TRIPOS>MOLECULE
ZINC41636448
   38    41     0     0     0
SMALL
USER_CHARGES

@<TRIPOS>ATOM
      1 C1          0.2703    1.6755    0.1433 C.3       1 <0>        -0.1006
      2 C2          0.2449    0.1730    0.0291 C.2       1 <0>        -0.1395
      3 C3          0.3372   -0.4381   -1.2073 C.2       1 <0>        -0.1444
      4 C4          0.3112   -1.7916   -1.2752 C.2       1 <0>        -0.2040
      5 S1          0.1522   -2.2445    0.4444 S.3       1 <0>         0.0573
      6 C5          0.1367   -0.5994    1.1376 C.2       1 <0>        -0.0978
      7 C6          0.0297   -0.1787    2.5808 C.3       1 <0>         0.3154
      8 H1          0.3019    0.8727    2.6739 H         1 <0>         0.0835
      9 C7         -1.3864   -0.3749    3.0575 C.2       1 <0>        -0.3936
     10 C8         -2.2819    0.5408    3.4451 C.2       1 <0>         0.4249
     11 N1         -3.5390    0.1627    3.8514 N.pl3     1 <0>        -0.3543
     12 C9         -3.8238   -1.1686    3.8403 C.2       1 <0>         0.2282
     13 S2         -2.3130   -1.8905    3.2462 S.3       1 <0>         0.1037
     14 N2         -5.0479   -1.3579    4.2515 N.2       1 <0>        -0.5252
     15 C10        -5.6013   -0.1824    4.5420 C.2       1 <0>         0.1977
     16 N3         -4.7345    0.7684    4.3186 N.2       1 <0>        -0.3056
     17 O1         -1.9444    1.8586    3.4372 O.3       1 <0>        -0.6767
     18 N4          0.9387   -0.9941    3.3973 N.3       1 <0>        -0.5353
     19 C11         0.8011   -0.6684    4.8224 C.3       1 <0>         0.0693
     20 C12         1.5755   -1.6954    5.6564 C.3       1 <0>        -0.1628
     21 C13         2.9990   -1.7472    5.1423 C.2       1 <0>         0.3645
     22 O2          3.9383   -1.6781    5.8981 O.2       1 <0>        -0.4700
     23 C14         3.2052   -1.8890    3.6488 C.3       1 <0>        -0.1610
     24 C15         2.3272   -0.8497    2.9423 C.3       1 <0>         0.0575
     25 H2          1.3004    2.0141    0.2543 H         1 <0>         0.0594
     26 H3         -0.1620    2.1156   -0.7553 H         1 <0>         0.0578
     27 H4         -0.3092    1.9835    1.0137 H         1 <0>         0.0786
     28 H5          0.4283    0.1541   -2.1059 H         1 <0>         0.1241
     29 H6          0.3709   -2.4303   -2.1440 H         1 <0>         0.1772
     30 H7         -6.6083   -0.0380    4.9046 H         1 <0>         0.2199
     31 H8          1.2025    0.3278    5.0080 H         1 <0>         0.0368
     32 H9         -0.2524   -0.6938    5.1010 H         1 <0>         0.0985
     33 H10         1.5738   -1.3945    6.7041 H         1 <0>         0.0885
     34 H11         1.1119   -2.6766    5.5544 H         1 <0>         0.1085
     35 H12         4.2526   -1.7127    3.4040 H         1 <0>         0.0876
     36 H13         2.9164   -2.8909    3.3313 H         1 <0>         0.1074
     37 H14         2.3747   -1.0059    1.8646 H         1 <0>         0.0876
     38 H15         2.6857    0.1516    3.1809 H         1 <0>         0.0372
@<TRIPOS>BOND
     1    1    2 1
     2    1   25 1
     3    1   26 1
     4    1   27 1
     5    2    6 2
     6    2    3 1
     7    3    4 2
     8    3   28 1
     9    4    5 1
    10    4   29 1
    11    5    6 1
    12    6    7 1
    13    7    8 1
    14    7    9 1
    15    7   18 1
    16    9   13 1
    17    9   10 2
    18   10   11 1
    19   10   17 1
    20   11   16 1
    21   11   12 1
    22   12   13 1
    23   12   14 2
    24   14   15 1
    25   15   16 2
    26   15   30 1
    27   18   24 1
    28   18   19 1
    29   19   20 1
    30   19   31 1
    31   19   32 1
    32   20   21 1
    33   20   33 1
    34   20   34 1
    35   21   22 2
    36   21   23 1
    37   23   24 1
    38   23   35 1
    39   23   36 1
    40   24   37 1
    41   24   38 1
@<TRIPOS>MOLECULE
ZINC00446667
   40    42     0     0     0
SMALL
USER_CHARGES

@<TRIPOS>ATOM
      1 C1         -0.0167    1.3781    0.0096 C.ar      1 <0>        -0.1322
      2 C2          1.1709    2.0855    0.0021 C.ar      1 <0>        -0.1206
      3 C3          2.3773    1.4107   -0.0130 C.ar      1 <0>        -0.1179
      4 C4          2.3960    0.0285   -0.0201 C.ar      1 <0>        -0.0646
      5 C5          1.2084   -0.6789   -0.0117 C.ar      1 <0>        -0.1144
      6 C6          0.0021   -0.0041    0.0020 C.ar      1 <0>        -0.1202
      7 C7          3.7112   -0.7071   -0.0376 C.3       1 <0>        -0.0361
      8 C8          3.7883   -1.5888   -1.2869 C.3       1 <0>        -0.1445
      9 C9          5.0811   -2.3617   -1.2732 C.2       1 <0>         0.4031
     10 O1          5.6062   -2.6811   -2.3283 O.3       1 <0>        -0.5682
     11 C10         5.6847   -2.7159   -0.0653 C.2       1 <0>        -0.4974
     12 C11         6.9446   -3.4698   -0.0821 C.2       1 <0>         0.2968
     13 N1          7.5184   -3.8067    1.0406 N.2       1 <0>        -0.5518
     14 C12         8.6933   -4.5096    1.0249 C.ar      1 <0>         0.1588
     15 C13         8.8483   -5.5976    0.1631 C.ar      1 <0>        -0.1463
     16 C14        10.0345   -6.3013    0.1525 C.ar      1 <0>        -0.0914
     17 C15        11.0696   -5.9315    0.9933 C.ar      1 <0>        -0.1146
     18 C16        10.9227   -4.8551    1.8498 C.ar      1 <0>        -0.0260
     19 C17         9.7439   -4.1385    1.8663 C.ar      1 <0>        -0.0803
     20 N2         12.0352   -4.4673    2.7458 N.pl3     1 <0>         0.0388
     21 O2         13.0708   -5.0909    2.7286 O.2       1 <0>        -0.1732
     22 O3         11.9083   -3.5268    3.4949 O.3       1 <0>        -0.1655
     23 C18         5.1114   -2.3654    1.1583 C.2       1 <0>         0.3956
     24 O4          5.6625   -2.6879    2.1991 O.2       1 <0>        -0.5121
     25 C19         3.8190   -1.5930    1.2065 C.3       1 <0>        -0.1489
     26 H1         -0.9591    1.9053    0.0259 H         1 <0>         0.1163
     27 H2          1.1563    3.1654    0.0076 H         1 <0>         0.1180
     28 H3          3.3051    1.9634   -0.0196 H         1 <0>         0.1213
     29 H4          1.2231   -1.7588   -0.0176 H         1 <0>         0.1223
     30 H5         -0.9258   -0.5567    0.0082 H         1 <0>         0.1183
     31 H6          4.5308    0.0114   -0.0457 H         1 <0>         0.0815
     32 H7          2.9489   -2.2842   -1.2937 H         1 <0>         0.0823
     33 H8          3.7488   -0.9618   -2.1776 H         1 <0>         0.0765
     34 H9          7.3964   -3.7454   -1.0235 H         1 <0>         0.0813
     35 H10         8.0411   -5.8875   -0.4933 H         1 <0>         0.1326
     36 H11        10.1556   -7.1431   -0.5131 H         1 <0>         0.1369
     37 H12        11.9963   -6.4861    0.9809 H         1 <0>         0.1421
     38 H13         9.6323   -3.2952    2.5318 H         1 <0>         0.1500
     39 H14         3.8016   -0.9689    2.1000 H         1 <0>         0.0746
     40 H15         2.9800   -2.2884    1.2317 H         1 <0>         0.0791
@<TRIPOS>BOND
     1    1    6 ar
     2    1    2 ar
     3    1   26 1
     4    2    3 ar
     5    2   27 1
     6    3    4 ar
     7    3   28 1
     8    4    5 ar
     9    4    7 1
    10    5    6 ar
    11    5   29 1
    12    6   30 1
    13    7   25 1
    14    7    8 1
    15    7   31 1
    16    8    9 1
    17    8   32 1
    18    8   33 1
    19    9   10 1
    20    9   11 2
    21   11   12 1
    22   11   23 1
    23   12   13 2
    24   12   34 1
    25   13   14 1
    26   14   19 ar
    27   14   15 ar
    28   15   16 ar
    29   15   35 1
    30   16   17 ar
    31   16   36 1
    32   17   18 ar
    33   17   37 1
    34   18   19 ar
    35   18   20 1
    36   19   38 1
    37   20   21 2
    38   20   22 1
    39   23   24 2
    40   23   25 1
    41   25   39 1
    42   25   40 1
@<TRIPOS>MOLECULE
ZINC08053002
   29    31     0     0     0
SMALL
USER_CHARGES

@<TRIPOS>ATOM
      1 C1         -0.0163    1.3513    0.0095 C.2       1 <0>        -0.1804
      2 C2          1.1833    2.0380    0.0017 C.2       1 <0>        -0.0406
      3 C3          2.3426    1.3358   -0.0131 C.2       1 <0>        -0.6671
      4 S1          1.7535   -0.3495   -0.0166 S.3       1 <0>         0.1437
      5 C4          0.0021   -0.0041    0.0020 C.2       1 <0>        -0.1673
      6 S2          4.0007    1.9316   -0.0263 S.o2      1 <0>         2.6276
      7 O1          4.7986    0.8998   -0.5901 O.2       1 <0>        -1.0174
      8 O2          3.9565    3.2437   -0.5701 O.2       1 <0>        -1.0172
      9 N1          4.4769    2.0892    1.5520 N.2       1 <0>        -1.0296
     10 C5          5.7624    2.5485    1.8515 C.ar      1 <0>         0.3026
     11 C6          6.6394    2.8786    0.8280 C.ar      1 <0>        -0.2435
     12 C7          7.9106    3.3333    1.1272 C.ar      1 <0>         0.0340
     13 C8          8.3116    3.4604    2.4460 C.ar      1 <0>        -0.1979
     14 C9          7.4440    3.1337    3.4707 C.ar      1 <0>        -0.0686
     15 C10         6.1655    2.6820    3.1798 C.ar      1 <0>         0.0597
     16 N2          5.2813    2.3553    4.2194 N.pl3     1 <0>        -0.2795
     17 C11         5.5242    2.4371    5.5416 C.2       1 <0>         0.2140
     18 N3          4.4492    2.0436    6.1762 N.2       1 <0>        -0.5523
     19 C12         3.5049    1.7049    5.2994 C.2       1 <0>         0.1432
     20 N4          3.9648    1.8839    4.0883 N.2       1 <0>        -0.2273
     21 Cl1         9.0066    3.7451   -0.1545 Cl        1 <0>        -0.0924
     22 H1         -0.9542    1.8866    0.0258 H         1 <0>         0.1363
     23 H2          1.1967    3.1179    0.0070 H         1 <0>         0.1418
     24 H3         -0.8275   -0.6955    0.0065 H         1 <0>         0.1884
     25 H4          6.3294    2.7800   -0.2018 H         1 <0>         0.1188
     26 H5          9.3055    3.8156    2.6747 H         1 <0>         0.1281
     27 H6          7.7602    3.2342    4.4984 H         1 <0>         0.1272
     28 H7          6.4449    2.7689    5.9982 H         1 <0>         0.2093
     29 H8          2.5176    1.3451    5.5487 H         1 <0>         0.2063
@<TRIPOS>BOND
     1    1    5 2
     2    1    2 1
     3    1   22 1
     4    2    3 2
     5    2   23 1
     6    3    4 1
     7    3    6 1
     8    4    5 1
     9    5   24 1
    10    6    7 2
    11    6    8 2
    12    6    9 1
    13    9   10 1
    14   10   15 ar
    15   10   11 ar
    16   11   12 ar
    17   11   25 1
    18   12   13 ar
    19   12   21 1
    20   13   14 ar
    21   13   26 1
    22   14   15 ar
    23   14   27 1
    24   15   16 1
    25   16   20 1
    26   16   17 1
    27   17   18 2
    28   17   28 1
    29   18   19 1
    30   19   20 2
    31   19   29 1
@<TRIPOS>MOLECULE
ZINC66248033
   36    37     0     0     0
SMALL
USER_CHARGES

@<TRIPOS>ATOM
      1 C1         -0.0184    1.5028    0.0103 C.3       1 <0>        -0.1218
      2 C2          0.0021   -0.0041    0.0020 C.ar      1 <0>        -0.0409
      3 C3          0.0058   -0.6888   -1.1988 C.ar      1 <0>        -0.1354
      4 C4          0.0246   -2.0709   -1.2066 C.ar      1 <0>        -0.0145
      5 C5          0.0396   -2.7693   -0.0135 C.ar      1 <0>        -0.6125
      6 C6          0.0359   -2.0859    1.1877 C.ar      1 <0>        -0.0081
      7 C7          0.0229   -0.7022    1.1960 C.ar      1 <0>        -0.0621
      8 Cl1         0.0249    0.1571    2.7045 Cl        1 <0>        -0.0713
      9 S1          0.0630   -4.5311   -0.0244 S.o2      1 <0>         2.6356
     10 O1         -0.4763   -4.9521    1.2211 O.2       1 <0>        -1.0196
     11 O2         -0.4886   -4.9369   -1.2695 O.2       1 <0>        -1.0203
     12 N1          1.6512   -4.9997   -0.0351 N.2       1 <0>        -1.0993
     13 C8          1.9777   -6.3529   -0.0450 C.2       1 <0>         0.4418
     14 C9          1.0984   -7.3927   -0.0530 C.2       1 <0>        -0.4314
     15 C10         1.8384   -8.5784   -0.0624 C.2       1 <0>         0.1039
     16 N2          3.1099   -8.2698   -0.0601 N.2       1 <0>        -0.3543
     17 N3          3.2257   -6.8739   -0.0543 N.pl3     1 <0>        -0.3970
     18 C11         4.4775   -6.1129   -0.0551 C.3       1 <0>         0.1670
     19 C12         4.9201   -5.8577    1.3871 C.3       1 <0>        -0.0470
     20 C13         6.1778   -5.0930    1.3864 C.1       1 <0>         0.2236
     21 N4          7.1485   -4.5028    1.3859 N.1       1 <0>        -0.4511
     22 C14         1.2692   -9.9737   -0.0728 C.3       1 <0>        -0.0656
     23 H1          1.0042    1.8801    0.0026 H         1 <0>         0.0785
     24 H2         -0.5455    1.8639   -0.8728 H         1 <0>         0.0725
     25 H3         -0.5286    1.8543    0.9071 H         1 <0>         0.0747
     26 H4         -0.0063   -0.1438   -2.1311 H         1 <0>         0.1360
     27 H5          0.0271   -2.6054   -2.1450 H         1 <0>         0.1440
     28 H6          0.0474   -2.6316    2.1196 H         1 <0>         0.1475
     29 H7          0.0212   -7.3150   -0.0519 H         1 <0>         0.1209
     30 H8          5.2479   -6.6811   -0.5763 H         1 <0>         0.0826
     31 H9          4.3233   -5.1602   -0.5618 H         1 <0>         0.0980
     32 H10         4.1497   -5.2894    1.9084 H         1 <0>         0.1186
     33 H11         5.0743   -6.8103    1.8938 H         1 <0>         0.1109
     34 H12         1.1315  -10.3023   -1.1029 H         1 <0>         0.0664
     35 H13         1.9562  -10.6502    0.4356 H         1 <0>         0.0622
     36 H14         0.3081   -9.9779    0.4415 H         1 <0>         0.0679
@<TRIPOS>BOND
     1    1    2 1
     2    1   23 1
     3    1   24 1
     4    1   25 1
     5    2    7 ar
     6    2    3 ar
     7    3    4 ar
     8    3   26 1
     9    4    5 ar
    10    4   27 1
    11    5    6 ar
    12    5    9 1
    13    6    7 ar
    14    6   28 1
    15    7    8 1
    16    9   10 2
    17    9   11 2
    18    9   12 1
    19   12   13 1
    20   13   17 1
    21   13   14 2
    22   14   15 1
    23   14   29 1
    24   15   16 2
    25   15   22 1
    26   16   17 1
    27   17   18 1
    28   18   19 1
    29   18   30 1
    30   18   31 1
    31   19   20 1
    32   19   32 1
    33   19   33 1
    34   20   21 3
    35   22   34 1
    36   22   35 1
    37   22   36 1
@<TRIPOS>MOLECULE
ZINC22959387
   37    39     0     0     0
SMALL
USER_CHARGES
5-bromo-N-(1,3-dimethylpyrazolo[4,5-e]pyridin-5-yl)-2-methyl-benzenesulfonamide
@<TRIPOS>ATOM
      1 C1         -1.8038    3.3781   -2.2492 C.3       1 <0>        -0.1605
      2 C2         -0.7407    2.9492   -1.2709 C.ar      1 <0>         0.0352
      3 C3          0.5164    3.5228   -1.3208 C.ar      1 <0>        -0.1444
      4 C4          1.4912    3.1304   -0.4233 C.ar      1 <0>        -0.0543
      5 C5          1.2093    2.1633    0.5249 C.ar      1 <0>        -0.1208
      6 C6         -0.0481    1.5895    0.5742 C.ar      1 <0>        -0.0014
      7 C7         -1.0244    1.9867   -0.3203 C.ar      1 <0>        -0.6666
      8 S1         -2.6286    1.2610   -0.2530 S.o2      1 <0>         2.5863
      9 O1         -2.5794    0.2595    0.7539 O.2       1 <0>        -1.0311
     10 O2         -3.5587    2.3347   -0.2147 O.2       1 <0>        -0.9883
     11 N1         -2.8714    0.4755   -1.6905 N.2       1 <0>        -1.0455
     12 C8         -2.0955   -0.6432   -2.0165 C.ar      1 <0>         0.1664
     13 C9         -2.6938   -1.7862   -2.5232 C.ar      1 <0>        -0.0675
     14 C10        -1.8719   -2.8763   -2.8327 C.ar      1 <0>        -0.1790
     15 C11        -2.1135   -4.2117   -3.3676 C.2       1 <0>         0.0896
     16 N2         -0.9639   -4.8177   -3.4531 N.2       1 <0>        -0.2518
     17 N3          0.0583   -3.9744   -3.0068 N.pl3     1 <0>        -0.4083
     18 C12        -0.4825   -2.7756   -2.6212 C.ar      1 <0>         0.2510
     19 N4          0.0366   -1.6563   -2.1329 N.ar      1 <0>        -0.4812
     20 C13        -0.7130   -0.6166   -1.8402 C.ar      1 <0>         0.0672
     21 C14         1.4817   -4.3177   -2.9597 C.3       1 <0>         0.1194
     22 C15        -3.4523   -4.7863   -3.7527 C.3       1 <0>        -0.0712
     23 Br1         2.5431    1.6256    1.7529 Br        1 <0>        -0.0613
     24 H1         -1.3945    4.1459   -2.9222 H         1 <0>         0.0668
     25 H2         -2.6622    3.7920   -1.6998 H         1 <0>         0.1023
     26 H3         -2.1306    2.5095   -2.8397 H         1 <0>         0.1052
     27 H4          0.7363    4.2777   -2.0611 H         1 <0>         0.1322
     28 H5          2.4731    3.5785   -0.4624 H         1 <0>         0.1306
     29 H6         -0.2686    0.8345    1.3143 H         1 <0>         0.1437
     30 H7         -3.7620   -1.8342   -2.6751 H         1 <0>         0.1317
     31 H8         -0.2478    0.2765   -1.4498 H         1 <0>         0.1498
     32 H9          2.0520   -3.4636   -2.5655 H         1 <0>         0.0916
     33 H10         1.8347   -4.5578   -3.9735 H         1 <0>         0.0649
     34 H11         1.6271   -5.1894   -2.3047 H         1 <0>         0.0653
     35 H12        -3.3176   -5.8130   -4.1238 H         1 <0>         0.0719
     36 H13        -3.9036   -4.1673   -4.5422 H         1 <0>         0.0808
     37 H14        -4.1130   -4.7979   -2.8733 H         1 <0>         0.0813
@<TRIPOS>BOND
     1    1    2 1
     2    1   24 1
     3    1   25 1
     4    1   26 1
     5    2    7 ar
     6    2    3 ar
     7    3    4 ar
     8    3   27 1
     9    4    5 ar
    10    4   28 1
    11    5    6 ar
    12    5   23 1
    13    6    7 ar
    14    6   29 1
    15    7    8 1
    16    8    9 2
    17    8   10 2
    18    8   11 1
    19   11   12 1
    20   12   20 ar
    21   12   13 ar
    22   13   14 ar
    23   13   30 1
    24   14   18 ar
    25   14   15 1
    26   15   16 2
    27   15   22 1
    28   16   17 1
    29   17   18 1
    30   17   21 1
    31   18   19 ar
    32   19   20 ar
    33   20   31 1
    34   21   32 1
    35   21   33 1
    36   21   34 1
    37   22   35 1
    38   22   36 1
    39   22   37 1
@<TRIPOS>MOLECULE
ZINC39994616
   43    45     0     0     0
SMALL
USER_CHARGES

@<TRIPOS>ATOM
      1 C1         -0.0375    1.5267   -0.0101 C.3       1 <0>        -0.1492
      2 C2         -0.0168   -0.0031   -0.0208 C.3       1 <0>        -0.1203
      3 C3         -1.4514   -0.5329    0.0263 C.3       1 <0>        -0.0005
      4 C4         -1.4310   -2.0397    0.0157 C.2       1 <0>        -0.0243
      5 N1         -1.3897   -2.8931    1.0210 N.2       1 <0>        -0.2506
      6 N2         -1.3785   -4.1417    0.8433 N.2       1 <0>        -0.3503
      7 C5         -1.4078   -4.6737   -0.3789 C.2       1 <0>         0.3688
      8 S1         -1.4638   -3.1798   -1.3644 S.3       1 <0>        -0.1422
      9 N3         -1.4020   -5.9754   -0.7653 N.2       1 <0>        -0.6043
     10 C6         -1.3630   -6.9304    0.1397 C.2       1 <0>         0.4634
     11 O1         -1.3285   -6.6150    1.4548 O.3       1 <0>        -0.6269
     12 C7         -1.3568   -8.3365   -0.2777 C.2       1 <0>        -0.0140
     13 C8         -1.3156   -9.3430    0.6760 C.2       1 <0>        -0.0016
     14 C9         -1.4054  -10.6854    0.2827 C.2       1 <0>        -0.1492
     15 C10        -0.5205  -11.1965   -0.6227 C.2       1 <0>        -0.0690
     16 C11        -0.6750  -12.6037   -1.0121 C.ar      1 <0>        -0.1267
     17 C12         0.3505  -13.2986   -1.6556 C.ar      1 <0>        -0.0690
     18 C13         0.1615  -14.6198   -2.0029 C.ar      1 <0>        -0.1511
     19 C14        -1.0368  -15.2549   -1.7164 C.ar      1 <0>        -0.0847
     20 C15        -2.0598  -14.5769   -1.0791 C.ar      1 <0>        -0.1473
     21 C16        -1.8903  -13.2514   -0.7222 C.ar      1 <0>         0.1360
     22 O2         -2.8742  -12.5593   -0.0974 O.3       1 <0>        -0.3036
     23 C17        -2.4754  -11.5747    0.8611 C.3       1 <0>         0.1395
     24 H1         -3.3390  -10.9685    1.1345 H         1 <0>         0.1294
     25 C18        -1.9339  -12.2695    2.1121 C.3       1 <0>        -0.1780
     26 C19        -1.3932   -8.6703   -1.6698 C.1       1 <0>         0.2705
     27 N4         -1.4221   -8.9351   -2.7741 N.1       1 <0>        -0.4253
     28 H2          0.9845    1.9042   -0.0437 H         1 <0>         0.0529
     29 H3         -0.5873    1.8887   -0.8790 H         1 <0>         0.0532
     30 H4         -0.5246    1.8771    0.8999 H         1 <0>         0.0548
     31 H5          0.4702   -0.3535   -0.9309 H         1 <0>         0.0627
     32 H6          0.5329   -0.3651    0.8480 H         1 <0>         0.0668
     33 H7         -1.9384   -0.1825    0.9363 H         1 <0>         0.0872
     34 H8         -2.0011   -0.1709   -0.8425 H         1 <0>         0.0773
     35 H9         -1.2143   -9.0922    1.7216 H         1 <0>         0.1629
     36 H10         0.2670  -10.5858   -1.0389 H         1 <0>         0.1354
     37 H11         1.2846  -12.8052   -1.8802 H         1 <0>         0.1289
     38 H12         0.9513  -15.1625   -2.5011 H         1 <0>         0.1254
     39 H13        -1.1730  -16.2897   -1.9940 H         1 <0>         0.1280
     40 H14        -2.9894  -15.0814   -0.8608 H         1 <0>         0.1320
     41 H15        -1.6457  -11.5192    2.8484 H         1 <0>         0.0812
     42 H16        -2.7060  -12.9137    2.5329 H         1 <0>         0.0706
     43 H17        -1.0643  -12.8705    1.8463 H         1 <0>         0.0613
@<TRIPOS>BOND
     1    1    2 1
     2    1   28 1
     3    1   29 1
     4    1   30 1
     5    2    3 1
     6    2   31 1
     7    2   32 1
     8    3    4 1
     9    3   33 1
    10    3   34 1
    11    4    8 1
    12    4    5 2
    13    5    6 1
    14    6    7 2
    15    7    8 1
    16    7    9 1
    17    9   10 2
    18   10   11 1
    19   10   12 1
    20   12   13 2
    21   12   26 1
    22   13   14 1
    23   13   35 1
    24   14   23 1
    25   14   15 2
    26   15   16 1
    27   15   36 1
    28   16   21 ar
    29   16   17 ar
    30   17   18 ar
    31   17   37 1
    32   18   19 ar
    33   18   38 1
    34   19   20 ar
    35   19   39 1
    36   20   21 ar
    37   20   40 1
    38   21   22 1
    39   22   23 1
    40   23   24 1
    41   23   25 1
    42   25   41 1
    43   25   42 1
    44   25   43 1
    45   26   27 3
@<TRIPOS>MOLECULE
ZINC57531583
   26    26     0     0     0
SMALL
USER_CHARGES

@<TRIPOS>ATOM
      1 C1         -0.0187    1.5258    0.0104 C.3       1 <0>        -0.1211
      2 C2          0.0021   -0.0041    0.0020 C.3       1 <0>        -0.1531
      3 H1          0.5293   -0.3651    0.8851 H         1 <0>         0.0760
      4 C3          0.7182   -0.4975   -1.2568 C.3       1 <0>         0.0962
      5 O1          2.0903   -0.1010   -1.2105 O.3       1 <0>        -0.3231
      6 C4          2.8730   -0.4629   -2.2614 C.ar      1 <0>         0.2251
      7 C5          3.5462   -1.6763   -2.2413 C.ar      1 <0>        -0.1230
      8 C6          4.3411   -2.0420   -3.3116 C.ar      1 <0>         0.0001
      9 C7          4.4662   -1.2000   -4.4010 C.ar      1 <0>        -0.0610
     10 C8          3.7966    0.0095   -4.4236 C.ar      1 <0>        -0.0002
     11 C9          2.9958    0.3777   -3.3587 C.ar      1 <0>        -0.1230
     12 Br1         2.0743    2.0286   -3.3940 Br        1 <0>         0.0132
     13 N1          5.3188   -1.5938   -5.5451 N.pl3     1 <0>         0.0404
     14 O2          5.9051   -2.6510   -5.5263 O.2       1 <0>        -0.1516
     15 O3          5.4290   -0.8584   -6.4983 O.3       1 <0>        -0.1516
     16 Br2         3.3768   -2.8281   -0.7512 Br        1 <0>         0.0139
     17 C10        -1.4117   -0.5257    0.0127 C.2       1 <0>         0.5045
     18 O4         -1.8097   -1.2271   -0.9017 O.co2     1 <0>        -0.6954
     19 O5         -2.1576   -0.2463    0.9358 O.co2     1 <0>        -0.6875
     20 H2          1.0039    1.9031    0.0027 H         1 <0>         0.0475
     21 H3         -0.5459    1.8868   -0.8726 H         1 <0>         0.0446
     22 H4         -0.5289    1.8773    0.9072 H         1 <0>         0.0578
     23 H5          0.6556   -1.5845   -1.3079 H         1 <0>         0.0666
     24 H6          0.2444   -0.0644   -2.1377 H         1 <0>         0.0629
     25 H7          4.8653   -2.9862   -3.2965 H         1 <0>         0.1709
     26 H8          3.8961    0.6653   -5.2759 H         1 <0>         0.1708
@<TRIPOS>BOND
     1    1    2 1
     2    1   20 1
     3    1   21 1
     4    1   22 1
     5    2    3 1
     6    2    4 1
     7    2   17 1
     8    4    5 1
     9    4   23 1
    10    4   24 1
    11    5    6 1
    12    6   11 ar
    13    6    7 ar
    14    7    8 ar
    15    7   16 1
    16    8    9 ar
    17    8   25 1
    18    9   10 ar
    19    9   13 1
    20   10   11 ar
    21   10   26 1
    22   11   12 1
    23   13   14 2
    24   13   15 1
    25   17   18 2
    26   17   19 1
@<TRIPOS>MOLECULE
ZINC39774820
   49    52     0     0     0
SMALL
USER_CHARGES

@<TRIPOS>ATOM
      1 C1         -0.0187    1.5258    0.0104 C.3       1 <0>        -0.1511
      2 C2          0.0021   -0.0041    0.0020 C.3       1 <0>        -0.1189
      3 C3          0.7182   -0.4975   -1.2568 C.3       1 <0>        -0.1037
      4 C4          0.7390   -2.0273   -1.2652 C.3       1 <0>        -0.1053
      5 S1          1.5880   -2.6123   -2.7577 S.3       1 <0>        -0.0114
      6 C5          1.5292   -4.3680   -2.6210 C.2       1 <0>         0.4354
      7 N1          0.9322   -4.9078   -1.5652 N.2       1 <0>        -0.6836
      8 C6          0.9349   -6.2166   -1.3592 C.2       1 <0>         0.5262
      9 O1          0.3338   -6.6735   -0.4060 O.2       1 <0>        -0.5016
     10 C7          1.6651   -7.1411   -2.2810 C.3       1 <0>        -0.2230
     11 H1          2.5436   -7.5185   -1.7576 H         1 <0>         0.1217
     12 C8          0.8077   -8.3342   -2.6904 C.3       1 <0>         0.1109
     13 H2          0.6331   -8.9754   -1.8265 H         1 <0>         0.1211
     14 C9          1.5535   -9.1074   -3.7587 C.2       1 <0>        -0.3978
     15 C10         2.3664   -8.4191   -4.6637 C.2       1 <0>         0.3105
     16 C11         3.0838   -9.1723   -5.7592 C.3       1 <0>        -0.0838
     17 C12         3.4176  -10.5818   -5.2630 C.3       1 <0>        -0.1101
     18 C13         2.1178  -11.2784   -4.8511 C.3       1 <0>        -0.1340
     19 C14         1.4148  -10.4515   -3.8100 C.2       1 <0>         0.3478
     20 O2          0.6284  -11.0647   -2.9066 O.3       1 <0>        -0.6084
     21 N2          2.5458   -7.1155   -4.5661 N.2       1 <0>        -0.5981
     22 C15         2.1304   -6.4207   -3.5161 C.2       1 <0>         0.4982
     23 N3          2.0808   -5.1059   -3.5840 N.2       1 <0>        -0.6103
     24 C16        -0.5098   -7.8494   -3.2385 C.2       1 <0>         0.0128
     25 C17        -1.7243   -8.1387   -2.7378 C.2       1 <0>        -0.1982
     26 C18        -2.6717   -7.4805   -3.5552 C.2       1 <0>        -0.2118
     27 C19        -1.9794   -6.8283   -4.5064 C.2       1 <0>        -0.0333
     28 O3         -0.6701   -7.0506   -4.3062 O.3       1 <0>        -0.1644
     29 C20        -2.5722   -5.9863   -5.6067 C.3       1 <0>        -0.0650
     30 H3          1.0039    1.9031    0.0027 H         1 <0>         0.0540
     31 H4         -0.5459    1.8868   -0.8726 H         1 <0>         0.0541
     32 H5         -0.5289    1.8773    0.9072 H         1 <0>         0.0537
     33 H6          0.5293   -0.3651    0.8851 H         1 <0>         0.0648
     34 H7         -1.0205   -0.3814    0.0098 H         1 <0>         0.0650
     35 H8          0.1910   -0.1364   -2.1398 H         1 <0>         0.0714
     36 H9          1.7408   -0.1202   -1.2645 H         1 <0>         0.0710
     37 H10         1.2661   -2.3884   -0.3821 H         1 <0>         0.0926
     38 H11        -0.2836   -2.4046   -1.2575 H         1 <0>         0.0939
     39 H12         2.4415   -9.2377   -6.6374 H         1 <0>         0.0907
     40 H13         4.0046   -8.6495   -6.0181 H         1 <0>         0.0898
     41 H14         3.8977  -11.1465   -6.0622 H         1 <0>         0.0766
     42 H15         4.0863  -10.5183   -4.4045 H         1 <0>         0.0690
     43 H16         1.4731  -11.3898   -5.7229 H         1 <0>         0.0884
     44 H17         2.3468  -12.2618   -4.4404 H         1 <0>         0.0837
     45 H18        -1.9352   -8.7559   -1.8771 H         1 <0>         0.1421
     46 H19        -3.7452   -7.4982   -3.4384 H         1 <0>         0.1403
     47 H20        -2.6630   -4.9549   -5.2662 H         1 <0>         0.0744
     48 H21        -1.9241   -6.0240   -6.4824 H         1 <0>         0.0716
     49 H22        -3.5581   -6.3710   -5.8676 H         1 <0>         0.0818
@<TRIPOS>BOND
     1    1    2 1
     2    1   30 1
     3    1   31 1
     4    1   32 1
     5    2    3 1
     6    2   33 1
     7    2   34 1
     8    3    4 1
     9    3   35 1
    10    3   36 1
    11    4    5 1
    12    4   37 1
    13    4   38 1
    14    5    6 1
    15    6   23 1
    16    6    7 2
    17    7    8 1
    18    8    9 2
    19    8   10 1
    20   10   11 1
    21   10   22 1
    22   10   12 1
    23   12   13 1
    24   12   14 1
    25   12   24 1
    26   14   19 2
    27   14   15 1
    28   15   16 1
    29   15   21 2
    30   16   17 1
    31   16   39 1
    32   16   40 1
    33   17   18 1
    34   17   41 1
    35   17   42 1
    36   18   19 1
    37   18   43 1
    38   18   44 1
    39   19   20 1
    40   21   22 1
    41   22   23 2
    42   24   28 1
    43   24   25 2
    44   25   26 1
    45   25   45 1
    46   26   27 2
    47   26   46 1
    48   27   28 1
    49   27   29 1
    50   29   47 1
    51   29   48 1
    52   29   49 1
@<TRIPOS>MOLECULE
ZINC66255170
   35    37     0     0     0
SMALL
USER_CHARGES

@<TRIPOS>ATOM
      1 C1         -0.0167    1.3770    0.0096 C.ar      1 <0>        -0.0346
      2 C2          1.1707    2.0858    0.0021 C.ar      1 <0>        -0.1612
      3 C3          2.3791    1.4145   -0.0130 C.ar      1 <0>         0.0076
      4 C4          2.4032    0.0331   -0.0211 C.ar      1 <0>        -0.6349
      5 C5          1.2136   -0.6802   -0.0135 C.ar      1 <0>         0.2100
      6 C6          0.0021   -0.0041    0.0020 C.ar      1 <0>        -0.2167
      7 O1          1.2347   -2.0390   -0.0215 O.3       1 <0>        -0.2921
      8 C7         -0.0283   -2.7075   -0.0130 C.3       1 <0>         0.6062
      9 F1         -0.7600   -2.3363   -1.1461 F         1 <0>        -0.1660
     10 F2          0.1765   -4.0914   -0.0228 F         1 <0>        -0.1244
     11 F3         -0.7378   -2.3493    1.1383 F         1 <0>        -0.1635
     12 S1          3.9438   -0.8218   -0.0415 S.o2      1 <0>         2.6224
     13 O2          3.8539   -1.7964   -1.0717 O.2       1 <0>        -0.9851
     14 O3          4.9598    0.1715   -0.0191 O.2       1 <0>        -0.9963
     15 N1          4.0620   -1.6521    1.3865 N.2       1 <0>        -0.9941
     16 C8          5.1758   -2.4176    1.6473 C.2       1 <0>         0.4445
     17 N2          5.4352   -3.1456    2.7232 N.2       1 <0>        -0.5992
     18 C9          6.5425   -3.8358    2.8478 C.2       1 <0>         0.2241
     19 C10         7.4117   -3.7352    1.7538 C.2       1 <0>        -0.4203
     20 S2          6.5291   -2.6558    0.6695 S.3       1 <0>        -0.0247
     21 C11         8.6403   -4.3737    1.6397 C.2       1 <0>         0.4427
     22 O4          9.3478   -4.2170    0.6644 O.2       1 <0>        -0.5098
     23 C12         9.0608   -5.2752    2.7862 C.3       1 <0>        -0.1505
     24 C13         8.4759   -4.7408    4.0939 C.3       1 <0>        -0.1096
     25 C14         6.9460   -4.6977    4.0350 C.3       1 <0>        -0.0476
     26 H1         -0.9594    1.9037    0.0259 H         1 <0>         0.1385
     27 H2          1.1540    3.1657    0.0076 H         1 <0>         0.1390
     28 H3          3.3051    1.9704   -0.0189 H         1 <0>         0.1555
     29 H4         -0.9255   -0.5572    0.0082 H         1 <0>         0.1398
     30 H5          8.6914   -6.2852    2.6088 H         1 <0>         0.0925
     31 H6         10.1485   -5.2926    2.8548 H         1 <0>         0.0871
     32 H7          8.7844   -5.3882    4.9147 H         1 <0>         0.0758
     33 H8          8.8557   -3.7345    4.2708 H         1 <0>         0.0686
     34 H9          6.5545   -4.2636    4.9550 H         1 <0>         0.0879
     35 H10         6.5540   -5.7067    3.9075 H         1 <0>         0.0885
@<TRIPOS>BOND
     1    1    6 ar
     2    1    2 ar
     3    1   26 1
     4    2    3 ar
     5    2   27 1
     6    3    4 ar
     7    3   28 1
     8    4    5 ar
     9    4   12 1
    10    5    6 ar
    11    5    7 1
    12    6   29 1
    13    7    8 1
    14    8    9 1
    15    8   10 1
    16    8   11 1
    17   12   13 2
    18   12   14 2
    19   12   15 1
    20   15   16 1
    21   16   20 1
    22   16   17 2
    23   17   18 1
    24   18   25 1
    25   18   19 2
    26   19   20 1
    27   19   21 1
    28   21   22 2
    29   21   23 1
    30   23   24 1
    31   23   30 1
    32   23   31 1
    33   24   25 1
    34   24   32 1
    35   24   33 1
    36   25   34 1
    37   25   35 1
@<TRIPOS>MOLECULE
ZINC08339605
   47    48     0     0     0
SMALL
USER_CHARGES
6-[(1-ethyl-3,5-dimethyl-pyrazol-4-yl)methyl-methyl-carbamoyl]cyclohex-3-ene-1-carboxylic acid
@<TRIPOS>ATOM
      1 C1          1.7978   -4.9639   -2.7606 C.3       1 <0>        -0.1672
      2 C2          1.3455   -4.4774   -1.3823 C.3       1 <0>         0.1292
      3 N1         -0.0764   -4.1281   -1.4302 N.pl3     1 <0>        -0.3741
      4 C3         -0.5866   -2.9171   -1.7374 C.2       1 <0>         0.1373
      5 C4         -1.9349   -3.0076   -1.6667 C.2       1 <0>        -0.2699
      6 C5         -2.2601   -4.3210   -1.3125 C.2       1 <0>         0.0803
      7 N2         -1.1469   -4.9936   -1.1705 N.2       1 <0>        -0.3131
      8 C6         -3.6523   -4.8672   -1.1271 C.3       1 <0>        -0.0709
      9 C7         -2.9133   -1.8919   -1.9295 C.3       1 <0>         0.2012
     10 N3         -3.1134   -1.1186   -0.7014 N.am      1 <0>        -0.6231
     11 C8         -4.0857   -1.5690    0.2976 C.3       1 <0>         0.0814
     12 C9         -2.4031    0.0073   -0.4907 C.2       1 <0>         0.5341
     13 O1         -1.5982    0.3801   -1.3178 O.2       1 <0>        -0.4973
     14 C10        -2.6089    0.8028    0.7725 C.3       1 <0>        -0.0804
     15 H1         -2.3874    0.1817    1.6404 H         1 <0>         0.0872
     16 C11        -4.0582    1.2886    0.8440 C.3       1 <0>        -0.0871
     17 C12        -4.2126    2.2938    1.9476 C.2       1 <0>        -0.1691
     18 C13        -3.2242    2.9175    2.5039 C.2       1 <0>        -0.1415
     19 C14        -1.7850    2.7153    2.1300 C.3       1 <0>        -0.0731
     20 C15        -1.6862    2.0282    0.7663 C.3       1 <0>        -0.1090
     21 H2         -1.9980    2.7176   -0.0183 H         1 <0>         0.0710
     22 C16        -0.2651    1.5909    0.5211 C.2       1 <0>         0.4821
     23 O2         -0.0115    0.4197    0.3665 O.co2     1 <0>        -0.6246
     24 C17         0.2038   -1.6841   -2.0921 C.3       1 <0>        -0.1012
     25 H3          1.2174   -5.8418   -3.0445 H         1 <0>         0.0613
     26 H4          1.6425   -4.1728   -3.4941 H         1 <0>         0.0611
     27 H5          2.8558   -5.2238   -2.7250 H         1 <0>         0.0737
     28 H6          1.9259   -3.5996   -1.0984 H         1 <0>         0.0941
     29 H7          1.5008   -5.2686   -0.6488 H         1 <0>         0.0901
     30 H8         -3.9798   -5.3481   -2.0489 H         1 <0>         0.0717
     31 H9         -3.6515   -5.5968   -0.3172 H         1 <0>         0.0686
     32 H10        -4.3327   -4.0520   -0.8810 H         1 <0>         0.0750
     33 H11        -3.8654   -2.3124   -2.2532 H         1 <0>         0.0704
     34 H12        -2.5200   -1.2399   -2.7094 H         1 <0>         0.0851
     35 H13        -5.0582   -1.1255    0.0839 H         1 <0>         0.0499
     36 H14        -4.1661   -2.6554    0.2623 H         1 <0>         0.0637
     37 H15        -3.7561   -1.2611    1.2900 H         1 <0>         0.0677
     38 H16        -4.3321    1.7492   -0.1052 H         1 <0>         0.0702
     39 H17        -4.7147    0.4400    1.0365 H         1 <0>         0.0758
     40 H18        -5.2104    2.5100    2.2998 H         1 <0>         0.0986
     41 H19        -3.4493    3.6280    3.2856 H         1 <0>         0.0978
     42 H20        -1.2998    2.0946    2.8833 H         1 <0>         0.0678
     43 H21        -1.2842    3.6823    2.0845 H         1 <0>         0.0774
     44 H22         0.4288   -1.1233   -1.1850 H         1 <0>         0.1216
     45 H23         1.1344   -1.9764   -2.5787 H         1 <0>         0.0499
     46 H24        -0.3800   -1.0606   -2.7693 H         1 <0>         0.0874
     47 O3          0.7183    2.5031    0.4689 O.co2     1 <0>        -0.7814
@<TRIPOS>BOND
     1    1    2 1
     2    1   25 1
     3    1   26 1
     4    1   27 1
     5    2    3 1
     6    2   28 1
     7    2   29 1
     8    3    7 1
     9    3    4 1
    10    4    5 2
    11    4   24 1
    12    5    6 1
    13    5    9 1
    14    6    7 2
    15    6    8 1
    16    8   30 1
    17    8   31 1
    18    8   32 1
    19    9   10 1
    20    9   33 1
    21    9   34 1
    22   10   11 1
    23   10   12 am
    24   11   35 1
    25   11   36 1
    26   11   37 1
    27   12   13 2
    28   12   14 1
    29   14   15 1
    30   14   20 1
    31   14   16 1
    32   16   17 1
    33   16   38 1
    34   16   39 1
    35   17   18 2
    36   17   40 1
    37   18   19 1
    38   18   41 1
    39   19   20 1
    40   19   42 1
    41   19   43 1
    42   20   21 1
    43   20   22 1
    44   22   23 2
    45   22   47 1
    46   24   44 1
    47   24   45 1
    48   24   46 1
@<TRIPOS>MOLECULE
ZINC31720124
   32    34     0     0     0
SMALL
USER_CHARGES
N-[3-(2-oxooxazolidin-3-yl)phenyl]thiophene-2-sulfonamide
@<TRIPOS>ATOM
      1 C1         -3.6168    2.4878    0.0252 C.ar      1 <0>        -0.0723
      2 C2         -3.4819    3.8628    0.0098 C.ar      1 <0>        -0.2306
      3 C3         -2.2185    4.4388    0.0590 C.ar      1 <0>         0.2545
      4 C4         -1.0914    3.6312    0.1237 C.ar      1 <0>        -0.1848
      5 C5         -1.2306    2.2512    0.1390 C.ar      1 <0>         0.1815
      6 C6         -2.4967    1.6814    0.0842 C.ar      1 <0>        -0.2214
      7 N1         -0.0967    1.4335    0.2036 N.am      1 <0>        -0.5651
      8 C7         -0.1029   -0.0372    0.2264 C.3       1 <0>         0.0564
      9 C8          1.3908   -0.4095    0.2935 C.3       1 <0>         0.0423
     10 O1          2.0749    0.8769    0.3015 O.3       1 <0>        -0.3256
     11 C9          1.1719    1.8626    0.2490 C.2       1 <0>         0.6353
     12 O2          1.4745    3.0395    0.2426 O.2       1 <0>        -0.4917
     13 N2         -2.0827    5.8288    0.0430 N.2       1 <0>        -1.0570
     14 S1         -2.9418    6.7322   -1.0470 S.o2      1 <0>         2.6079
     15 O3         -4.3025    6.3452   -0.9122 O.2       1 <0>        -1.0307
     16 O4         -2.5130    8.0775   -0.8871 O.2       1 <0>        -0.9899
     17 C10        -2.4323    6.2292   -2.6570 C.2       1 <0>        -0.6878
     18 C11        -2.9977    5.3172   -3.4852 C.2       1 <0>        -0.0591
     19 C12        -2.4189    5.0818   -4.7182 C.2       1 <0>        -0.1771
     20 C13        -1.3031    5.7700   -5.0627 C.2       1 <0>        -0.1801
     21 S2         -1.0420    6.7942   -3.6239 S.3       1 <0>         0.1283
     22 H1         -4.6000    2.0424   -0.0128 H         1 <0>         0.1108
     23 H2         -4.3594    4.4904   -0.0409 H         1 <0>         0.1411
     24 H3         -0.1082    4.0764    0.1624 H         1 <0>         0.1494
     25 H4         -2.6054    0.6070    0.0919 H         1 <0>         0.1058
     26 H5         -0.6594   -0.3879    1.1081 H         1 <0>         0.0965
     27 H6         -0.5858   -0.4161   -0.6865 H         1 <0>         0.0956
     28 H7          1.5839   -0.9872    1.2095 H         1 <0>         0.1079
     29 H8          1.6576   -1.0152   -0.5851 H         1 <0>         0.1074
     30 H9         -3.8872    4.7826   -3.1863 H         1 <0>         0.1386
     31 H10        -2.8495    4.3607   -5.3971 H         1 <0>         0.1305
     32 H11        -0.7246    5.7158   -5.9730 H         1 <0>         0.1835
@<TRIPOS>BOND
     1    1    6 ar
     2    1    2 ar
     3    1   22 1
     4    2    3 ar
     5    2   23 1
     6    3    4 ar
     7    3   13 1
     8    4    5 ar
     9    4   24 1
    10    5    6 ar
    11    5    7 1
    12    6   25 1
    13    7   11 am
    14    7    8 1
    15    8    9 1
    16    8   26 1
    17    8   27 1
    18    9   10 1
    19    9   28 1
    20    9   29 1
    21   10   11 1
    22   11   12 2
    23   13   14 1
    24   14   15 2
    25   14   16 2
    26   14   17 1
    27   17   21 1
    28   17   18 2
    29   18   19 1
    30   18   30 1
    31   19   20 2
    32   19   31 1
    33   20   21 1
    34   20   32 1
@<TRIPOS>MOLECULE
ZINC37836470
   46    47     0     0     0
SMALL
USER_CHARGES

@<TRIPOS>ATOM
      1 C1         -0.0187    1.5258    0.0104 C.3       1 <0>        -0.1513
      2 C2          0.0021   -0.0041    0.0020 C.3       1 <0>        -0.0940
      3 H1          0.5123   -0.3556   -0.8948 H         1 <0>         0.0740
      4 C3         -1.4333   -0.5336    0.0129 C.3       1 <0>        -0.1141
      5 C4         -1.4126   -2.0635    0.0045 C.3       1 <0>        -0.1202
      6 C5         -0.6726   -2.5703    1.2440 C.3       1 <0>        -0.1187
      7 C6          0.7628   -2.0407    1.2331 C.3       1 <0>        -0.1300
      8 C7          0.7421   -0.5109    1.2415 C.3       1 <0>         0.1529
      9 H2          0.2319   -0.1594    2.1383 H         1 <0>         0.0984
     10 N1          2.1165   -0.0038    1.2311 N.pl3     1 <0>        -1.0059
     11 C8          3.0127   -0.3395    0.1220 C.3       1 <0>         0.0951
     12 S1          2.6570    0.9488    2.4732 S.o2      1 <0>         2.7785
     13 O1          3.7362    1.7156    1.9569 O.2       1 <0>        -0.9772
     14 O2          1.5074    1.5474    3.0558 O.2       1 <0>        -0.9741
     15 N2          3.2985   -0.0590    3.6199 N.pl3     1 <0>        -1.0000
     16 C9          2.4558   -0.6049    4.6926 C.3       1 <0>         0.1211
     17 C10         3.1067   -0.2853    6.0420 C.3       1 <0>        -0.1064
     18 C11         4.5455   -0.8068    6.0460 C.3       1 <0>        -0.1507
     19 C12         5.3466   -0.1072    4.9456 C.3       1 <0>        -0.1080
     20 C13         4.7198   -0.4293    3.5805 C.3       1 <0>         0.1220
     21 C14         5.1781   -0.5244    7.3843 C.2       1 <0>         0.4962
     22 O3          5.9024   -1.3562    7.9039 O.co2     1 <0>        -0.7040
     23 O4          4.9657    0.5360    7.9474 O.co2     1 <0>        -0.6961
     24 H3          1.0039    1.9031    0.0027 H         1 <0>         0.0506
     25 H4         -0.5459    1.8868   -0.8726 H         1 <0>         0.0555
     26 H5         -0.5289    1.8773    0.9072 H         1 <0>         0.0623
     27 H6         -1.9435   -0.1821    0.9097 H         1 <0>         0.0660
     28 H7         -1.9605   -0.1726   -0.8702 H         1 <0>         0.0645
     29 H8         -2.4352   -2.4408    0.0122 H         1 <0>         0.0621
     30 H9         -0.9024   -2.4150   -0.8923 H         1 <0>         0.0609
     31 H10        -1.1828   -2.2188    2.1408 H         1 <0>         0.0655
     32 H11        -0.6578   -3.6602    1.2380 H         1 <0>         0.0650
     33 H12         1.2900   -2.4018    2.1162 H         1 <0>         0.0694
     34 H13         1.2730   -2.3923    0.3363 H         1 <0>         0.0681
     35 H14         2.9221    0.4149   -0.6595 H         1 <0>         0.0552
     36 H15         4.0412   -0.3682    0.4818 H         1 <0>         0.0687
     37 H16         2.7417   -1.3151   -0.2817 H         1 <0>         0.0716
     38 H17         1.4663   -0.1499    4.6473 H         1 <0>         0.0829
     39 H18         2.3692   -1.6851    4.5753 H         1 <0>         0.0625
     40 H19         3.1103    0.7935    6.1977 H         1 <0>         0.0717
     41 H20         2.5430   -0.7669    6.8410 H         1 <0>         0.0657
     42 H21         4.5426   -1.8818    5.8656 H         1 <0>         0.0607
     43 H22         5.3291    0.9699    5.1116 H         1 <0>         0.0661
     44 H23         6.3770   -0.4620    4.9642 H         1 <0>         0.0690
     45 H24         4.8140   -1.4955    3.3744 H         1 <0>         0.0649
     46 H25         5.2246    0.1417    2.8012 H         1 <0>         0.0834
@<TRIPOS>BOND
     1    1    2 1
     2    1   24 1
     3    1   25 1
     4    1   26 1
     5    2    3 1
     6    2    8 1
     7    2    4 1
     8    4    5 1
     9    4   27 1
    10    4   28 1
    11    5    6 1
    12    5   29 1
    13    5   30 1
    14    6    7 1
    15    6   31 1
    16    6   32 1
    17    7    8 1
    18    7   33 1
    19    7   34 1
    20    8    9 1
    21    8   10 1
    22   10   11 1
    23   10   12 1
    24   11   35 1
    25   11   36 1
    26   11   37 1
    27   12   13 2
    28   12   14 2
    29   12   15 1
    30   15   20 1
    31   15   16 1
    32   16   17 1
    33   16   38 1
    34   16   39 1
    35   17   18 1
    36   17   40 1
    37   17   41 1
    38   18   19 1
    39   18   21 1
    40   18   42 1
    41   19   20 1
    42   19   43 1
    43   19   44 1
    44   20   45 1
    45   20   46 1
    46   21   22 2
    47   21   23 1
@<TRIPOS>MOLECULE
ZINC48676190
   35    37     0     0     0
SMALL
USER_CHARGES

@<TRIPOS>ATOM
      1 C1         -0.0178    1.4608    0.0101 C.3       1 <0>         0.0973
      2 N1          0.0021   -0.0041    0.0020 N.pl3     1 <0>        -0.3766
      3 C2          0.0078   -0.7920   -1.0936 C.2       1 <0>         0.1644
      4 C3          0.0272   -2.0789   -0.6760 C.2       1 <0>        -0.7660
      5 C4          0.0335   -2.0775    0.7227 C.2       1 <0>         0.1323
      6 N2          0.0246   -0.8342    1.1302 N.2       1 <0>        -0.3075
      7 S1          0.0410   -3.5046   -1.7112 S.o2      1 <0>         2.6809
      8 O1         -0.4917   -4.5722   -0.9393 O.2       1 <0>        -1.0081
      9 O2         -0.5215   -3.1090   -2.9547 O.2       1 <0>        -1.0142
     10 N3          1.6266   -3.8796   -2.0070 N.2       1 <0>        -1.0575
     11 C5          1.9224   -4.8940   -2.7478 C.2       1 <0>         0.5105
     12 O3          0.9398   -5.6490   -3.2814 O.3       1 <0>        -0.7204
     13 C6          3.3654   -5.2352   -3.0169 C.3       1 <0>        -0.0917
     14 H1          3.6866   -6.2202   -2.6781 H         1 <0>         0.1158
     15 C7          4.3853   -4.0969   -2.9475 C.3       1 <0>        -0.1478
     16 C8          3.9921   -4.6912   -4.3023 C.3       1 <0>        -0.1151
     17 H2          3.3607   -4.0864   -4.9532 H         1 <0>         0.1154
     18 C9          5.0066   -5.5578   -5.0027 C.ar      1 <0>        -0.0426
     19 C10         6.1604   -5.9404   -4.3442 C.ar      1 <0>        -0.0947
     20 C11         7.0913   -6.7355   -4.9853 C.ar      1 <0>        -0.1508
     21 C12         6.8681   -7.1490   -6.2877 C.ar      1 <0>         0.0801
     22 C13         5.7121   -6.7653   -6.9463 C.ar      1 <0>        -0.1505
     23 C14         4.7802   -5.9744   -6.3013 C.ar      1 <0>        -0.0836
     24 F1          7.7776   -7.9260   -6.9156 F         1 <0>        -0.1465
     25 H3          1.0048    1.8381    0.0023 H         1 <0>         0.0767
     26 H4         -0.5450    1.8219   -0.8730 H         1 <0>         0.0886
     27 H5         -0.5280    1.8123    0.9069 H         1 <0>         0.0890
     28 H6         -0.0017   -0.4556   -2.1198 H         1 <0>         0.1879
     29 H7          0.0482   -2.9516    1.3568 H         1 <0>         0.1948
     30 H8          4.0126   -3.1012   -2.7072 H         1 <0>         0.1126
     31 H9          5.3777   -4.3331   -2.5634 H         1 <0>         0.0919
     32 H10         6.3345   -5.6174   -3.3284 H         1 <0>         0.1360
     33 H11         7.9928   -7.0339   -4.4708 H         1 <0>         0.1320
     34 H12         5.5371   -7.0870   -7.9623 H         1 <0>         0.1326
     35 H13         3.8764   -5.6787   -6.8132 H         1 <0>         0.1349
@<TRIPOS>BOND
     1    1    2 1
     2    1   25 1
     3    1   26 1
     4    1   27 1
     5    2    6 1
     6    2    3 1
     7    3    4 2
     8    3   28 1
     9    4    5 1
    10    4    7 1
    11    5    6 2
    12    5   29 1
    13    7    8 2
    14    7    9 2
    15    7   10 1
    16   10   11 2
    17   11   12 1
    18   11   13 1
    19   13   14 1
    20   13   16 1
    21   13   15 1
    22   15   16 1
    23   15   30 1
    24   15   31 1
    25   16   17 1
    26   16   18 1
    27   18   23 ar
    28   18   19 ar
    29   19   20 ar
    30   19   32 1
    31   20   21 ar
    32   20   33 1
    33   21   22 ar
    34   21   24 1
    35   22   23 ar
    36   22   34 1
    37   23   35 1
@<TRIPOS>MOLECULE
ZINC62843149
   46    47     0     0     0
SMALL
USER_CHARGES

@<TRIPOS>ATOM
      1 C1         -0.0187    1.5258    0.0104 C.3       1 <0>        -0.1167
      2 C2          0.0021   -0.0041    0.0020 C.3       1 <0>        -0.1263
      3 C3         -1.4338   -0.5335    0.0112 C.3       1 <0>        -0.1048
      4 C4         -2.1590   -0.0098    1.2548 C.3       1 <0>         0.1221
      5 N1         -1.3759   -0.3688    2.4451 N.pl3     1 <0>        -0.9985
      6 C5          0.0418    0.0132    2.4996 C.3       1 <0>         0.1220
      7 C6          0.7423   -0.5108    1.2420 C.3       1 <0>        -0.1037
      8 S1         -2.0780   -1.1877    3.7015 S.o2      1 <0>         2.7826
      9 O1         -1.3040   -0.8988    4.8577 O.2       1 <0>        -0.9810
     10 O2         -3.4720   -0.9210    3.6317 O.2       1 <0>        -0.9811
     11 N2         -1.8897   -2.8048    3.3980 N.pl3     1 <0>        -1.0043
     12 C7         -0.7021   -3.5087    3.8882 C.3       1 <0>         0.0956
     13 C8         -2.9108   -3.5314    2.6393 C.3       1 <0>         0.1503
     14 C9         -2.2830   -4.1218    1.3751 C.3       1 <0>        -0.1343
     15 C10        -3.3494   -4.8806    0.5827 C.3       1 <0>        -0.1178
     16 C11        -3.9184   -6.0095    1.4447 C.3       1 <0>        -0.1202
     17 C12        -4.5462   -5.4190    2.7088 C.3       1 <0>        -0.1173
     18 C13        -3.4798   -4.6602    3.5012 C.3       1 <0>        -0.1234
     19 C14         0.7081   -0.4898   -1.2376 C.2       1 <0>         0.5024
     20 O3          1.1533    0.3132   -2.0398 O.co2     1 <0>        -0.6970
     21 O4          0.8341   -1.6858   -1.4383 O.co2     1 <0>        -0.6985
     22 H1          1.0039    1.9031    0.0027 H         1 <0>         0.0490
     23 H2         -0.5459    1.8868   -0.8726 H         1 <0>         0.0490
     24 H3         -0.5289    1.8773    0.9072 H         1 <0>         0.0363
     25 H4         -1.9534   -0.1915   -0.8839 H         1 <0>         0.0641
     26 H5         -1.4196   -1.6232    0.0302 H         1 <0>         0.0693
     27 H6         -2.2538    1.0743    1.1931 H         1 <0>         0.0715
     28 H7         -3.1486   -0.4623    1.3184 H         1 <0>         0.0785
     29 H8          0.1264    1.0992    2.5394 H         1 <0>         0.0716
     30 H9          0.5043   -0.4241    3.3844 H         1 <0>         0.0788
     31 H10         0.7360   -1.6007    1.2494 H         1 <0>         0.0673
     32 H11         1.7716   -0.1526    1.2229 H         1 <0>         0.0642
     33 H12        -0.8998   -3.9047    4.8843 H         1 <0>         0.0540
     34 H13        -0.4612   -4.3292    3.2122 H         1 <0>         0.0745
     35 H14         0.1382   -2.8160    3.9328 H         1 <0>         0.0686
     36 H15        -3.7125   -2.8471    2.3613 H         1 <0>         0.0956
     37 H16        -1.8777   -3.3176    0.7610 H         1 <0>         0.0787
     38 H17        -1.4814   -4.8061    1.6531 H         1 <0>         0.0685
     39 H18        -4.1511   -4.1964    0.3048 H         1 <0>         0.0634
     40 H19        -2.9022   -5.3013   -0.3179 H         1 <0>         0.0677
     41 H20        -4.6781   -6.5501    0.8801 H         1 <0>         0.0606
     42 H21        -3.1167   -6.6937    1.7226 H         1 <0>         0.0611
     43 H22        -5.3478   -4.7348    2.4309 H         1 <0>         0.0642
     44 H23        -4.9515   -6.2232    3.3229 H         1 <0>         0.0625
     45 H24        -2.6781   -5.3444    3.7792 H         1 <0>         0.0672
     46 H25        -3.9270   -4.2395    4.4018 H         1 <0>         0.0635
@<TRIPOS>BOND
     1    1    2 1
     2    1   22 1
     3    1   23 1
     4    1   24 1
     5    2    7 1
     6    2    3 1
     7    2   19 1
     8    3    4 1
     9    3   25 1
    10    3   26 1
    11    4    5 1
    12    4   27 1
    13    4   28 1
    14    5    6 1
    15    5    8 1
    16    6    7 1
    17    6   29 1
    18    6   30 1
    19    7   31 1
    20    7   32 1
    21    8    9 2
    22    8   10 2
    23    8   11 1
    24   11   12 1
    25   11   13 1
    26   12   33 1
    27   12   34 1
    28   12   35 1
    29   13   18 1
    30   13   14 1
    31   13   36 1
    32   14   15 1
    33   14   37 1
    34   14   38 1
    35   15   16 1
    36   15   39 1
    37   15   40 1
    38   16   17 1
    39   16   41 1
    40   16   42 1
    41   17   18 1
    42   17   43 1
    43   17   44 1
    44   18   45 1
    45   18   46 1
    46   19   20 2
    47   19   21 1
@<TRIPOS>MOLECULE
ZINC13273577
   40    42     0     0     0
SMALL
USER_CHARGES
(E)-3-[3-nitro-4-[1-[[(2S)-tetrahydrofuran-2-yl]methyl]tetrazol-5-yl]sulfanyl-phenyl]prop-2-enoic acid
@<TRIPOS>ATOM
      1 C1         -5.2502   -3.3394    0.1303 C.ar      1 <0>        -0.0914
      2 C2         -4.0942   -2.6628    0.3980 C.ar      1 <0>        -0.0344
      3 C3         -3.1276   -3.2312    1.2242 C.ar      1 <0>        -0.1361
      4 C4         -3.3397   -4.4868    1.7895 C.ar      1 <0>         0.0223
      5 C5         -4.4949   -5.1677    1.5314 C.ar      1 <0>        -0.0625
      6 C6         -5.4675   -4.6019    0.6966 C.ar      1 <0>         0.0207
      7 C7         -6.7115   -5.3303    0.4166 C.2       1 <0>        -0.1381
      8 C8         -7.6487   -4.7825   -0.3891 C.2       1 <0>        -0.1006
      9 C9         -8.8490   -5.4853   -0.6593 C.2       1 <0>         0.4637
     10 O1         -9.0362   -6.5816   -0.1662 O.co2     1 <0>        -0.6268
     11 N1         -2.3115   -5.0834    2.6717 N.pl3     1 <0>         0.0283
     12 O2         -2.4960   -6.1810    3.1664 O.2       1 <0>        -0.1551
     13 O3         -1.2810   -4.4766    2.9028 O.3       1 <0>        -0.1535
     14 S1         -1.6354   -2.3568    1.5611 S.3       1 <0>         0.2077
     15 C10        -0.5281   -3.2194    0.4961 C.2       1 <0>         0.2231
     16 N2         -0.8465   -4.1614   -0.3647 N.2       1 <0>        -0.3384
     17 N3          0.2002   -4.5833   -0.9775 N.2       1 <0>        -0.0301
     18 N4          1.2456   -3.9512   -0.5660 N.2       1 <0>        -0.0887
     19 N5          0.8104   -3.0356    0.4080 N.pl3     1 <0>        -0.3594
     20 C11         1.6303   -2.0897    1.1692 C.3       1 <0>         0.1223
     21 C12         1.7175   -0.7643    0.4098 C.3       1 <0>         0.0618
     22 H1          2.0978   -0.9307   -0.5980 H         1 <0>         0.0837
     23 C13         2.6264    0.2345    1.1696 C.3       1 <0>        -0.1465
     24 C14         2.0770    1.5896    0.6465 C.3       1 <0>        -0.1542
     25 C15         0.5735    1.2872    0.4691 C.3       1 <0>         0.0499
     26 O4          0.4280   -0.1335    0.3583 O.3       1 <0>        -0.3704
     27 H2         -5.9976   -2.8995   -0.5134 H         1 <0>         0.1561
     28 H3         -3.9277   -1.6873   -0.0346 H         1 <0>         0.1562
     29 H4         -4.6584   -6.1411    1.9697 H         1 <0>         0.1623
     30 H5         -6.8776   -6.3035    0.8543 H         1 <0>         0.1418
     31 H6         -7.4826   -3.8093   -0.8269 H         1 <0>         0.1127
     32 H7          2.6316   -2.5001    1.2999 H         1 <0>         0.1244
     33 H8          1.1770   -1.9198    2.1457 H         1 <0>         0.1149
     34 H9          2.4922    0.1460    2.2476 H         1 <0>         0.0874
     35 H10         3.6726    0.1013    0.8941 H         1 <0>         0.0905
     36 H11         2.5351    1.8518   -0.3072 H         1 <0>         0.0782
     37 H12         2.2296    2.3798    1.3816 H         1 <0>         0.0868
     38 H13         0.2038    1.7685   -0.4362 H         1 <0>         0.0709
     39 H14         0.0189    1.6493    1.3348 H         1 <0>         0.0753
     40 O5         -9.7846   -4.9385   -1.4636 O.co2     1 <0>        -0.7546
@<TRIPOS>BOND
     1    1    6 ar
     2    1    2 ar
     3    1   27 1
     4    2    3 ar
     5    2   28 1
     6    3    4 ar
     7    3   14 1
     8    4    5 ar
     9    4   11 1
    10    5    6 ar
    11    5   29 1
    12    6    7 1
    13    7    8 2
    14    7   30 1
    15    8    9 1
    16    8   31 1
    17    9   10 2
    18    9   40 1
    19   11   12 2
    20   11   13 1
    21   14   15 1
    22   15   19 1
    23   15   16 2
    24   16   17 1
    25   17   18 2
    26   18   19 1
    27   19   20 1
    28   20   21 1
    29   20   32 1
    30   20   33 1
    31   21   22 1
    32   21   26 1
    33   21   23 1
    34   23   24 1
    35   23   34 1
    36   23   35 1
    37   24   25 1
    38   24   36 1
    39   24   37 1
    40   25   26 1
    41   25   38 1
    42   25   39 1
@<TRIPOS>MOLECULE
ZINC52913430
   36    39     0     0     0
SMALL
USER_CHARGES

@<TRIPOS>ATOM
      1 C1         -0.0165    1.3636    0.0095 C.2       1 <0>        -0.3570
      2 C2          1.1895    2.0623    0.0018 C.2       1 <0>         0.2435
      3 N1          2.3337    1.4100   -0.0131 N.2       1 <0>        -0.5650
      4 C3          2.3643    0.0764   -0.0205 C.2       1 <0>         0.3770
      5 C4          3.4236   -0.8503   -0.0360 C.2       1 <0>        -0.2611
      6 C5          2.8459   -2.1331   -0.0372 C.2       1 <0>         0.1282
      7 N2          1.5451   -2.0078   -0.0236 N.2       1 <0>        -0.3082
      8 N3          1.2065   -0.6506   -0.0130 N.pl3     1 <0>        -0.3382
      9 C6          0.0021   -0.0041    0.0020 C.2       1 <0>         0.4959
     10 O1         -1.1536   -0.7061    0.0097 O.3       1 <0>        -0.6405
     11 C7          4.8228   -0.5455   -0.0486 C.1       1 <0>         0.3259
     12 N4          5.9327   -0.3037   -0.0586 N.1       1 <0>        -0.4834
     13 C8          1.1843    3.5693    0.0099 C.3       1 <0>        -0.0662
     14 S1          2.8924    4.1799   -0.0031 S.3       1 <0>         0.1216
     15 C9          2.7184    5.9333    0.0079 C.2       1 <0>         0.0355
     16 N5          1.6204    6.6643    0.0282 N.2       1 <0>        -0.2855
     17 N6          1.7123    8.0370    0.0338 N.2       1 <0>        -0.3764
     18 C10         2.8970    8.6156    0.0190 C.2       1 <0>         0.3626
     19 S2          3.9816    7.1963    0.0027 S.3       1 <0>        -0.0197
     20 N7          3.2166    9.9683    0.0210 N.pl3     1 <0>        -0.5747
     21 C11         4.5761   10.5276   -0.0035 C.3       1 <0>         0.1121
     22 C12         4.4401   12.0643    0.0355 C.3       1 <0>        -0.1292
     23 C13         3.0310   12.2730    0.6506 C.3       1 <0>        -0.1334
     24 C14         2.2484   11.0799    0.0418 C.3       1 <0>         0.1198
     25 H1         -0.9557    1.8964    0.0258 H         1 <0>         0.1458
     26 H2          3.3879   -3.0672   -0.0476 H         1 <0>         0.1909
     27 H3          0.6608    3.9356   -0.8732 H         1 <0>         0.1201
     28 H4          0.6778    3.9261    0.9067 H         1 <0>         0.1201
     29 H5          5.1346   10.1827    0.8667 H         1 <0>         0.0720
     30 H6          5.0855   10.2236   -0.9179 H         1 <0>         0.0721
     31 H7          5.2078   12.5034    0.6726 H         1 <0>         0.0886
     32 H8          4.4873   12.4813   -0.9705 H         1 <0>         0.0816
     33 H9          3.0658   12.2076    1.7381 H         1 <0>         0.0799
     34 H10         2.6021   13.2229    0.3314 H         1 <0>         0.0903
     35 H11         1.9198   11.3157   -0.9704 H         1 <0>         0.0720
     36 H12         1.3941   10.8272    0.6697 H         1 <0>         0.0830
@<TRIPOS>BOND
     1    1    9 2
     2    1    2 1
     3    1   25 1
     4    2    3 2
     5    2   13 1
     6    3    4 1
     7    4    8 1
     8    4    5 2
     9    5    6 1
    10    5   11 1
    11    6    7 2
    12    6   26 1
    13    7    8 1
    14    8    9 1
    15    9   10 1
    16   11   12 3
    17   13   14 1
    18   13   27 1
    19   13   28 1
    20   14   15 1
    21   15   19 1
    22   15   16 2
    23   16   17 1
    24   17   18 2
    25   18   19 1
    26   18   20 1
    27   20   24 1
    28   20   21 1
    29   21   22 1
    30   21   29 1
    31   21   30 1
    32   22   23 1
    33   22   31 1
    34   22   32 1
    35   23   24 1
    36   23   33 1
    37   23   34 1
    38   24   35 1
    39   24   36 1
@<TRIPOS>MOLECULE
ZINC63911750
   39    41     0     0     0
SMALL
USER_CHARGES

@<TRIPOS>ATOM
      1 C1         -0.0177    1.3930   -0.0604 C.ar      1 <0>        -0.0133
      2 C2          1.1651    2.0962   -0.0729 C.ar      1 <0>        -0.1889
      3 C3          2.3802    1.4182   -0.0289 C.ar      1 <0>         0.3060
      4 C4          2.4029    0.0273    0.0278 C.ar      1 <0>        -0.2756
      5 C5          1.2236   -0.6816    0.0401 C.ar      1 <0>        -0.0607
      6 C6          0.0018   -0.0036   -0.0035 C.ar      1 <0>        -0.2477
      7 C7         -1.2644   -0.7605    0.0105 C.2       1 <0>         0.5889
      8 O1         -2.3230   -0.1725    0.1205 O.2       1 <0>        -0.5606
      9 N1         -1.2478   -2.1037   -0.0986 N.am      1 <0>        -0.6239
     10 C8         -0.0435   -2.9467   -0.1215 C.3       1 <0>         0.0910
     11 C9         -0.5104   -4.4085   -0.2851 C.3       1 <0>        -0.1365
     12 C10        -1.9208   -4.2545   -0.9132 C.3       1 <0>        -0.1337
     13 C11        -2.4345   -2.9716   -0.2083 C.3       1 <0>         0.1076
     14 N2          3.5737    2.1316   -0.0421 N.2       1 <0>        -1.0735
     15 S1          5.0200    1.3268    0.0102 S.o2      1 <0>         2.6204
     16 O2          5.0899    0.6995    1.2833 O.2       1 <0>        -1.0019
     17 O3          5.1232    0.5977   -1.2051 O.2       1 <0>        -1.0056
     18 C12         6.2945    2.5431   -0.0225 C.2       1 <0>        -0.6261
     19 C13         6.9016    3.1714    1.0138 C.2       1 <0>        -0.0640
     20 C14         7.8885    4.1021    0.7482 C.2       1 <0>        -0.0689
     21 C15         8.2199    4.3590   -0.5408 C.2       1 <0>        -0.1686
     22 S2          7.1266    3.2621   -1.4289 S.3       1 <0>         0.3075
     23 N3          9.2303    5.3007   -1.0736 N.pl3     1 <0>         0.0803
     24 O4          9.8926    5.9697   -0.3150 O.2       1 <0>        -0.1396
     25 O5          9.3931    5.4008   -2.2674 O.3       1 <0>        -0.1435
     26 H1         -0.9601    1.9198   -0.0900 H         1 <0>         0.1205
     27 H2          1.1508    3.1752   -0.1172 H         1 <0>         0.1213
     28 H3          3.3472   -0.4958    0.0619 H         1 <0>         0.1019
     29 H4          1.2418   -1.7605    0.0834 H         1 <0>         0.1414
     30 H5          0.5910   -2.6640   -0.9615 H         1 <0>         0.0814
     31 H6          0.5049   -2.8353    0.8139 H         1 <0>         0.0782
     32 H7          0.1535   -4.9525   -0.9569 H         1 <0>         0.0820
     33 H8         -0.5717   -4.9045    0.6835 H         1 <0>         0.0756
     34 H9         -1.8547   -4.1119   -1.9918 H         1 <0>         0.0756
     35 H10        -2.5516   -5.1100   -0.6717 H         1 <0>         0.0807
     36 H11        -2.8232   -3.2097    0.7818 H         1 <0>         0.0632
     37 H12        -3.2028   -2.4891   -0.8124 H         1 <0>         0.0750
     38 H13         6.6183    2.9484    2.0318 H         1 <0>         0.1695
     39 H14         8.3877    4.6171    1.5556 H         1 <0>         0.1645
@<TRIPOS>BOND
     1    1    6 ar
     2    1    2 ar
     3    1   26 1
     4    2    3 ar
     5    2   27 1
     6    3    4 ar
     7    3   14 1
     8    4    5 ar
     9    4   28 1
    10    5    6 ar
    11    5   29 1
    12    6    7 1
    13    7    8 2
    14    7    9 am
    15    9   13 1
    16    9   10 1
    17   10   11 1
    18   10   30 1
    19   10   31 1
    20   11   12 1
    21   11   32 1
    22   11   33 1
    23   12   13 1
    24   12   34 1
    25   12   35 1
    26   13   36 1
    27   13   37 1
    28   14   15 1
    29   15   16 2
    30   15   17 2
    31   15   18 1
    32   18   22 1
    33   18   19 2
    34   19   20 1
    35   19   38 1
    36   20   21 2
    37   20   39 1
    38   21   22 1
    39   21   23 1
    40   23   24 2
    41   23   25 1
@<TRIPOS>MOLECULE
ZINC66250272
   32    34     0     0     0
SMALL
USER_CHARGES

@<TRIPOS>ATOM
      1 C1         -0.0184    1.5028    0.0103 C.3       1 <0>        -0.0876
      2 C2          0.0021   -0.0041    0.0020 C.2       1 <0>         0.2478
      3 C3          0.0061   -0.7299   -1.1821 C.2       1 <0>        -0.3746
      4 S1          0.0318   -2.3980   -0.5451 S.3       1 <0>        -0.0509
      5 C4          0.0348   -2.0217    1.0952 C.2       1 <0>         0.4504
      6 N1          0.0225   -0.7000    1.1102 N.2       1 <0>        -0.5981
      7 N2          0.0519   -2.8863    2.1681 N.2       1 <0>        -0.9890
      8 S2          0.0734   -4.5224    1.9128 S.o2      1 <0>         2.6234
      9 O1         -1.1702   -4.8560    1.3118 O.2       1 <0>        -0.9975
     10 O2          1.3202   -4.8214    1.3001 O.2       1 <0>        -0.9806
     11 C5          0.0916   -5.2964    3.4956 C.ar      1 <0>        -0.5800
     12 C6         -0.9568   -6.0578    3.8873 C.ar      1 <0>         0.0217
     13 C7         -0.9764   -6.6858    5.1327 C.ar      1 <0>        -0.1160
     14 C8          0.0519   -6.5608    6.0040 C.ar      1 <0>        -0.0236
     15 C9          1.1864   -5.7768    5.6607 C.ar      1 <0>         0.0541
     16 C10         1.2095   -5.1249    4.3561 C.ar      1 <0>         0.1307
     17 N3          2.3225   -4.4223    4.1408 N.2       1 <0>        -0.4724
     18 S3          3.2138   -4.6029    5.4678 S.3       1 <0>         0.6332
     19 N4          2.2822   -5.5418    6.3837 N.2       1 <0>        -0.5049
     20 C11        -0.0072   -0.2733   -2.5239 C.2       1 <0>         0.5714
     21 O3         -0.0249    0.9203   -2.7602 O.2       1 <0>        -0.5382
     22 O4         -0.0000   -1.1622   -3.5392 O.3       1 <0>        -0.3565
     23 C12        -0.0142   -0.6316   -4.8660 C.3       1 <0>         0.0402
     24 H1          1.0042    1.8801    0.0026 H         1 <0>         0.0770
     25 H2         -0.5455    1.8639   -0.8728 H         1 <0>         0.0899
     26 H3         -0.5286    1.8543    0.9071 H         1 <0>         0.0713
     27 H4         -1.7973   -6.1816    3.2205 H         1 <0>         0.1597
     28 H5         -1.8317   -7.2850    5.4081 H         1 <0>         0.1498
     29 H6          0.0100   -7.0575    6.9621 H         1 <0>         0.1475
     30 H7         -0.9133   -0.0320   -5.0080 H         1 <0>         0.0545
     31 H8          0.8664   -0.0074   -5.0171 H         1 <0>         0.0544
     32 H9         -0.0065   -1.4509   -5.5850 H         1 <0>         0.0931
@<TRIPOS>BOND
     1    1    2 1
     2    1   24 1
     3    1   25 1
     4    1   26 1
     5    2    6 1
     6    2    3 2
     7    3    4 1
     8    3   20 1
     9    4    5 1
    10    5    6 2
    11    5    7 1
    12    7    8 1
    13    8    9 2
    14    8   10 2
    15    8   11 1
    16   11   16 ar
    17   11   12 ar
    18   12   13 ar
    19   12   27 1
    20   13   14 ar
    21   13   28 1
    22   14   15 ar
    23   14   29 1
    24   15   19 2
    25   15   16 ar
    26   16   17 2
    27   17   18 1
    28   18   19 1
    29   20   21 2
    30   20   22 1
    31   22   23 1
    32   23   30 1
    33   23   31 1
    34   23   32 1
@<TRIPOS>MOLECULE
ZINC66588386
   34    35     0     0     0
SMALL
USER_CHARGES

@<TRIPOS>ATOM
      1 C1         -0.0225    1.8097    0.0120 C.3       1 <0>        -0.6544
      2 S1          0.0021   -0.0041    0.0020 S.o2      1 <0>         2.5131
      3 O1          0.8352   -0.4880    1.0465 O.2       1 <0>        -0.9385
      4 O2         -1.3147   -0.5105   -0.1678 O.2       1 <0>        -0.9381
      5 C2          0.8454   -0.4373   -1.4831 C.ar      1 <0>        -0.8297
      6 C3          0.1323   -0.6127   -2.6571 C.ar      1 <0>         0.2447
      7 C4          0.7923   -0.9533   -3.8242 C.ar      1 <0>        -0.2292
      8 C5          2.1713   -1.1189   -3.8180 C.ar      1 <0>         0.3658
      9 C6          2.8845   -0.9421   -2.6395 C.ar      1 <0>        -0.3192
     10 C7          2.2210   -0.5964   -1.4758 C.ar      1 <0>         0.2651
     11 F1          2.9150   -0.4189   -0.3304 F         1 <0>        -0.1189
     12 N1          2.8396   -1.4632   -4.9950 N.2       1 <0>        -1.0624
     13 S2          4.4838   -1.6604   -4.9861 S.o2      1 <0>         2.6026
     14 O3          5.0446   -0.3829   -4.7163 O.2       1 <0>        -1.0058
     15 O4          4.7523   -2.7967   -4.1762 O.2       1 <0>        -1.0043
     16 C8          4.9663   -2.0859   -6.6265 C.ar      1 <0>        -0.5763
     17 C9          5.0096   -3.4127   -7.0120 C.ar      1 <0>        -0.0208
     18 C10         5.3882   -3.7465   -8.2990 C.ar      1 <0>        -0.0784
     19 C11         5.7230   -2.7535   -9.2005 C.ar      1 <0>        -0.0140
     20 C12         5.6788   -1.4266   -8.8152 C.ar      1 <0>        -0.0789
     21 C13         5.2961   -1.0926   -7.5296 C.ar      1 <0>        -0.0212
     22 N2          6.1292   -3.1110  -10.5782 N.pl3     1 <0>         0.0314
     23 O5          6.1682   -4.2714  -10.9150 O.2       1 <0>        -0.1548
     24 O6          6.4220   -2.2425  -11.3667 O.3       1 <0>        -0.1554
     25 F2         -1.2090   -0.4515   -2.6627 F         1 <0>        -0.1195
     26 H1          1.0001    2.1870    0.0043 H         1 <0>         0.1288
     27 H2         -0.5497    2.1708   -0.8711 H         1 <0>         0.1291
     28 H3         -0.5327    2.1613    0.9088 H         1 <0>         0.1262
     29 H4          0.2357   -1.0907   -4.7395 H         1 <0>         0.1430
     30 H5          3.9568   -1.0707   -2.6323 H         1 <0>         0.1249
     31 H6          4.7481   -4.1885   -6.3077 H         1 <0>         0.1631
     32 H7          5.4227   -4.7831   -8.6000 H         1 <0>         0.1598
     33 H8          5.9407   -0.6508   -9.5195 H         1 <0>         0.1597
     34 H9          5.2580   -0.0558   -7.2297 H         1 <0>         0.1628
@<TRIPOS>BOND
     1    1    2 1
     2    1   26 1
     3    1   27 1
     4    1   28 1
     5    2    3 2
     6    2    4 2
     7    2    5 1
     8    5   10 ar
     9    5    6 ar
    10    6    7 ar
    11    6   25 1
    12    7    8 ar
    13    7   29 1
    14    8    9 ar
    15    8   12 1
    16    9   10 ar
    17    9   30 1
    18   10   11 1
    19   12   13 1
    20   13   14 2
    21   13   15 2
    22   13   16 1
    23   16   21 ar
    24   16   17 ar
    25   17   18 ar
    26   17   31 1
    27   18   19 ar
    28   18   32 1
    29   19   20 ar
    30   19   22 1
    31   20   21 ar
    32   20   33 1
    33   21   34 1
    34   22   23 2
    35   22   24 1
@<TRIPOS>MOLECULE
ZINC13278467
   37    39     0     0     0
SMALL
USER_CHARGES
1-(5-bromo-2-methoxy-phenyl)sulfonylindoline-5-carboxylic acid
@<TRIPOS>ATOM
      1 C1         -1.3054   -2.3922   -2.8896 C.3       1 <0>         0.0214
      2 O1         -0.1916   -2.2552   -2.0048 O.3       1 <0>        -0.3067
      3 C2          1.0400   -2.5128   -2.5186 C.ar      1 <0>         0.2400
      4 C3          1.1735   -2.8893   -3.8473 C.ar      1 <0>        -0.2205
      5 C4          2.4261   -3.1503   -4.3676 C.ar      1 <0>         0.0037
      6 C5          3.5473   -3.0360   -3.5649 C.ar      1 <0>        -0.1490
      7 C6          3.4168   -2.6561   -2.2413 C.ar      1 <0>         0.0490
      8 C7          2.1652   -2.3993   -1.7155 C.ar      1 <0>        -0.7051
      9 S1          1.9991   -1.9208   -0.0278 S.o2      1 <0>         2.7051
     10 O2          3.3130   -1.8694    0.5109 O.2       1 <0>        -0.9383
     11 O3          0.9793   -2.7395    0.5280 O.2       1 <0>        -0.9356
     12 N1          1.4207   -0.3692   -0.0135 N.pl3     1 <0>        -0.9276
     13 C8          0.0021   -0.0041    0.0020 C.3       1 <0>         0.1180
     14 C9         -0.0188    1.5332    0.0105 C.3       1 <0>        -0.0775
     15 C10         1.4409    1.9304   -0.0013 C.ar      1 <0>        -0.1454
     16 C11         2.2113    0.7736   -0.0149 C.ar      1 <0>         0.1416
     17 C12         3.6074    0.8813   -0.0277 C.ar      1 <0>        -0.1667
     18 C13         4.2086    2.1164   -0.0268 C.ar      1 <0>        -0.0447
     19 C14         3.4247    3.2744   -0.0131 C.ar      1 <0>        -0.1302
     20 C15         2.0312    3.1628   -0.0003 C.ar      1 <0>        -0.0446
     21 C16         4.0631    4.6029   -0.0115 C.2       1 <0>         0.4925
     22 O4          3.3777    5.6062    0.0004 O.co2     1 <0>        -0.6340
     23 Br1         5.2610   -3.3932   -4.2801 Br        1 <0>        -0.0346
     24 H1         -2.2256   -2.1582   -2.3543 H         1 <0>         0.1127
     25 H2         -1.1890   -1.7067   -3.7290 H         1 <0>         0.0653
     26 H3         -1.3510   -3.4162   -3.2603 H         1 <0>         0.0648
     27 H4          0.2987   -2.9780   -4.4744 H         1 <0>         0.1480
     28 H5          2.5304   -3.4433   -5.4018 H         1 <0>         0.1450
     29 H6          4.2935   -2.5639   -1.6174 H         1 <0>         0.1616
     30 H7         -0.4788   -0.3936    0.8993 H         1 <0>         0.0842
     31 H8         -0.4974   -0.3841   -0.8892 H         1 <0>         0.0841
     32 H9         -0.5235    1.9120   -0.8783 H         1 <0>         0.0849
     33 H10        -0.5064    1.9024    0.9127 H         1 <0>         0.0876
     34 H11         4.2148   -0.0116   -0.0379 H         1 <0>         0.1369
     35 H12         5.2858    2.1930   -0.0370 H         1 <0>         0.1396
     36 H13         1.4196    4.0530    0.0099 H         1 <0>         0.1295
     37 O5          5.4068    4.7048   -0.0234 O.co2     1 <0>        -0.7546
@<TRIPOS>BOND
     1    1    2 1
     2    1   24 1
     3    1   25 1
     4    1   26 1
     5    2    3 1
     6    3    8 ar
     7    3    4 ar
     8    4    5 ar
     9    4   27 1
    10    5    6 ar
    11    5   28 1
    12    6    7 ar
    13    6   23 1
    14    7    8 ar
    15    7   29 1
    16    8    9 1
    17    9   10 2
    18    9   11 2
    19    9   12 1
    20   12   16 1
    21   12   13 1
    22   13   14 1
    23   13   30 1
    24   13   31 1
    25   14   15 1
    26   14   32 1
    27   14   33 1
    28   15   20 ar
    29   15   16 ar
    30   16   17 ar
    31   17   18 ar
    32   17   34 1
    33   18   19 ar
    34   18   35 1
    35   19   20 ar
    36   19   21 1
    37   20   36 1
    38   21   22 2
    39   21   37 1
@<TRIPOS>MOLECULE
ZINC21702317
   35    38     0     0     0
SMALL
USER_CHARGES
N-(3-chloro-4-fluoro-phenyl)-4-(5-cyclopropyl-1,2,4-oxadiazol-3-yl)thiophene-2-sulfonamide
@<TRIPOS>ATOM
      1 C1          5.0835    2.9141    1.6977 C.ar      1 <0>        -0.1849
      2 C2          5.4257    3.0208    3.0320 C.ar      1 <0>        -0.1122
      3 C3          4.6190    2.4520    4.0023 C.ar      1 <0>         0.0284
      4 C4          3.4660    1.7747    3.6378 C.ar      1 <0>        -0.0429
      5 C5          3.1204    1.6655    2.3042 C.ar      1 <0>        -0.1266
      6 C6          3.9293    2.2354    1.3296 C.ar      1 <0>         0.2331
      7 N1          3.5820    2.1258   -0.0203 N.2       1 <0>        -1.0540
      8 S1          3.6478    3.4572   -1.0029 S.o2      1 <0>         2.6101
      9 O1          4.9448    4.0154   -0.8442 O.2       1 <0>        -1.0252
     10 O2          3.1416    3.0538   -2.2679 O.2       1 <0>        -0.9836
     11 C7          2.5093    4.6373   -0.3580 C.2       1 <0>        -0.7111
     12 C8          2.7431    5.6689    0.4837 C.2       1 <0>        -0.0255
     13 C9          1.6596    6.4662    0.8477 C.2       1 <0>        -0.0902
     14 C10         0.4308    6.1625    0.3370 C.2       1 <0>        -0.1604
     15 S2          0.7569    4.7794   -0.6558 S.3       1 <0>         0.2347
     16 C11         1.8371    7.6153    1.7671 C.2       1 <0>         0.2380
     17 N2          0.8702    8.4596    2.1935 N.2       1 <0>        -0.4820
     18 C12         1.4720    9.3135    2.9834 C.2       1 <0>         0.1773
     19 O3          2.7647    8.9750    3.0179 O.3       1 <0>         0.0735
     20 N3          2.9578    7.9999    2.3230 N.2       1 <0>        -0.3754
     21 C13         0.8281   10.4627    3.7154 C.3       1 <0>        -0.1596
     22 C14         1.7518   11.4552    4.4242 C.3       1 <0>        -0.1066
     23 C15         0.9185   10.4669    5.2427 C.3       1 <0>        -0.1026
     24 Cl1         2.4559    1.0628    4.8570 Cl        1 <0>        -0.0823
     25 F1          4.9558    2.5575    5.3064 F         1 <0>        -0.1477
     26 H1          5.7133    3.3585    0.9412 H         1 <0>         0.1545
     27 H2          6.3212    3.5523    3.3184 H         1 <0>         0.1285
     28 H3          2.2224    1.1371    2.0201 H         1 <0>         0.1347
     29 H4          3.7353    5.8685    0.8608 H         1 <0>         0.1492
     30 H5         -0.5110    6.6633    0.5057 H         1 <0>         0.1948
     31 H6          0.0153   10.5375    2.9780 H         1 <0>         0.1567
     32 H7          2.7888   11.2890    4.0970 H         1 <0>         0.1126
     33 H8          1.4483   12.4822    4.1731 H         1 <0>         0.1191
     34 H9         -0.0739   10.6769    5.6681 H         1 <0>         0.1199
     35 H10         1.2666    9.4837    5.5921 H         1 <0>         0.1077
@<TRIPOS>BOND
     1    1    6 ar
     2    1    2 ar
     3    1   26 1
     4    2    3 ar
     5    2   27 1
     6    3    4 ar
     7    3   25 1
     8    4    5 ar
     9    4   24 1
    10    5    6 ar
    11    5   28 1
    12    6    7 1
    13    7    8 1
    14    8    9 2
    15    8   10 2
    16    8   11 1
    17   11   15 1
    18   11   12 2
    19   12   13 1
    20   12   29 1
    21   13   14 2
    22   13   16 1
    23   14   15 1
    24   14   30 1
    25   16   20 2
    26   16   17 1
    27   17   18 2
    28   18   19 1
    29   18   21 1
    30   19   20 1
    31   21   23 1
    32   21   22 1
    33   21   31 1
    34   22   23 1
    35   22   32 1
    36   22   33 1
    37   23   34 1
    38   23   35 1
@<TRIPOS>MOLECULE
ZINC37602295
   55    58     0     0     0
SMALL
USER_CHARGES

@<TRIPOS>ATOM
      1 C1          0.4880    0.3106   -1.4235 C.3       1 <0>        -0.1106
      2 C2          0.6399   -1.0154   -0.7237 C.ar      1 <0>        -0.0838
      3 C3          1.2632   -2.0689   -1.3665 C.ar      1 <0>        -0.1205
      4 C4          1.4025   -3.2850   -0.7247 C.ar      1 <0>        -0.1111
      5 C5          0.9189   -3.4480    0.5603 C.ar      1 <0>        -0.0821
      6 C6          0.2965   -2.3946    1.2032 C.ar      1 <0>        -0.0420
      7 C7          0.1610   -1.1768    0.5628 C.ar      1 <0>        -0.1090
      8 C8         -0.2310   -2.5723    2.6036 C.3       1 <0>         0.2330
      9 H1         -0.6485   -1.6293    2.9563 H         1 <0>         0.0913
     10 C9          0.8947   -2.9946    3.5141 C.ar      1 <0>        -0.0510
     11 C10         2.0779   -2.2721    3.4568 C.ar      1 <0>        -0.1464
     12 C11         3.1439   -2.6047    4.2752 C.ar      1 <0>         0.1492
     13 C12         3.0240   -3.6680    5.1587 C.ar      1 <0>        -0.2089
     14 C13         1.8487   -4.3857    5.2099 C.ar      1 <0>        -0.0779
     15 C14         0.7800   -4.0560    4.3841 C.ar      1 <0>        -0.1292
     16 C15        -0.4612   -4.9040    4.4786 C.3       1 <0>        -0.0888
     17 C16        -1.6696   -4.1654    3.9054 C.3       1 <0>         0.0791
     18 N1         -1.2777   -3.5999    2.6041 N.am      1 <0>        -0.6011
     19 C17        -1.8585   -4.0093    1.4588 C.2       1 <0>         0.5548
     20 O1         -1.5390   -3.5035    0.4007 O.2       1 <0>        -0.4992
     21 C18        -2.8843   -5.0735    1.4895 C.ar      1 <0>        -0.1243
     22 C19        -2.8150   -6.0865    2.4473 C.ar      1 <0>        -0.1070
     23 C20        -3.7756   -7.0763    2.4708 C.ar      1 <0>        -0.1273
     24 C21        -4.8059   -7.0667    1.5474 C.ar      1 <0>        -0.0999
     25 C22        -4.8803   -6.0657    0.5951 C.ar      1 <0>        -0.1264
     26 C23        -3.9295   -5.0665    0.5645 C.ar      1 <0>        -0.0642
     27 O2          4.3009   -1.8945    4.2133 O.3       1 <0>        -0.2765
     28 C24         5.3956   -2.3679    5.0003 C.3       1 <0>         0.0122
     29 H2          5.3787   -3.4574    5.0282 H         1 <0>         0.0666
     30 C25         5.2754   -1.8193    6.4235 C.3       1 <0>        -0.1560
     31 C26         6.6920   -1.9012    4.3899 C.2       1 <0>         0.5050
     32 O3          6.6781   -1.1510    3.4289 O.co2     1 <0>        -0.6696
     33 O4          7.7548   -2.2737    4.8572 O.co2     1 <0>        -0.6864
     34 H3          1.3589    0.9325   -1.2165 H         1 <0>         0.0687
     35 H4          0.4055    0.1470   -2.4979 H         1 <0>         0.0616
     36 H5         -0.4102    0.8113   -1.0621 H         1 <0>         0.0612
     37 H6          1.6410   -1.9416   -2.3702 H         1 <0>         0.1140
     38 H7          1.8888   -4.1081   -1.2270 H         1 <0>         0.1136
     39 H8          1.0271   -4.3985    1.0615 H         1 <0>         0.1051
     40 H9         -0.3219   -0.3525    1.0666 H         1 <0>         0.1133
     41 H10         2.1680   -1.4445    2.7687 H         1 <0>         0.1300
     42 H11         3.8490   -3.9324    5.8036 H         1 <0>         0.1312
     43 H12         1.7569   -5.2127    5.8985 H         1 <0>         0.1199
     44 H13        -0.3077   -5.8276    3.9205 H         1 <0>         0.0740
     45 H14        -0.6516   -5.1455    5.5244 H         1 <0>         0.0849
     46 H15        -2.4975   -4.8615    3.7709 H         1 <0>         0.1136
     47 H16        -1.9669   -3.3641    4.5819 H         1 <0>         0.0776
     48 H17        -2.0108   -6.0955    3.1682 H         1 <0>         0.1449
     49 H18        -3.7231   -7.8607    3.2114 H         1 <0>         0.1286
     50 H19        -5.5553   -7.8441    1.5698 H         1 <0>         0.1254
     51 H20        -5.6869   -6.0642   -0.1231 H         1 <0>         0.1280
     52 H21        -3.9914   -4.2830   -0.1762 H         1 <0>         0.1319
     53 H22         4.3377   -2.1569    6.8650 H         1 <0>         0.0474
     54 H23         6.1104   -2.1805    7.0239 H         1 <0>         0.0734
     55 H24         5.2923   -0.7298    6.3956 H         1 <0>         0.0599
@<TRIPOS>BOND
     1    1    2 1
     2    1   34 1
     3    1   35 1
     4    1   36 1
     5    2    7 ar
     6    2    3 ar
     7    3    4 ar
     8    3   37 1
     9    4    5 ar
    10    4   38 1
    11    5    6 ar
    12    5   39 1
    13    6    7 ar
    14    6    8 1
    15    7   40 1
    16    8    9 1
    17    8   18 1
    18    8   10 1
    19   10   15 ar
    20   10   11 ar
    21   11   12 ar
    22   11   41 1
    23   12   13 ar
    24   12   27 1
    25   13   14 ar
    26   13   42 1
    27   14   15 ar
    28   14   43 1
    29   15   16 1
    30   16   17 1
    31   16   44 1
    32   16   45 1
    33   17   18 1
    34   17   46 1
    35   17   47 1
    36   18   19 am
    37   19   20 2
    38   19   21 1
    39   21   26 ar
    40   21   22 ar
    41   22   23 ar
    42   22   48 1
    43   23   24 ar
    44   23   49 1
    45   24   25 ar
    46   24   50 1
    47   25   26 ar
    48   25   51 1
    49   26   52 1
    50   27   28 1
    51   28   29 1
    52   28   30 1
    53   28   31 1
    54   30   53 1
    55   30   54 1
    56   30   55 1
    57   31   32 2
    58   31   33 1
@<TRIPOS>MOLECULE
ZINC40028901
   51    53     0     0     0
SMALL
USER_CHARGES

@<TRIPOS>ATOM
      1 C1         -4.6782   -1.6022   -1.7504 C.3       1 <0>        -0.1126
      2 C2         -3.4272   -2.3102   -1.2977 C.ar      1 <0>        -0.1091
      3 C3         -2.3025   -2.3048   -2.1037 C.ar      1 <0>        -0.1097
      4 C4         -1.1542   -2.9506   -1.6959 C.ar      1 <0>        -0.0812
      5 C5         -1.1267   -3.6119   -0.4659 C.ar      1 <0>        -0.1128
      6 C6         -2.2638   -3.6148    0.3440 C.ar      1 <0>        -0.0941
      7 C7         -3.4064   -2.9592   -0.0733 C.ar      1 <0>         0.0775
      8 F1         -4.5065   -2.9557    0.7108 F         1 <0>        -0.1411
      9 C8          0.1014   -4.3064   -0.0237 C.2       1 <0>         0.5062
     10 O1          1.0708   -4.3545   -0.7573 O.2       1 <0>        -0.4670
     11 C9          0.1511   -4.9370    1.2987 C.2       1 <0>        -0.5055
     12 C10         0.2490   -6.2619    1.5582 C.2       1 <0>         0.2649
     13 C11         0.2680   -6.4698    3.0217 C.2       1 <0>         0.5109
     14 O2          0.3490   -7.5502    3.5715 O.2       1 <0>        -0.5344
     15 N1          0.1827   -5.2858    3.6547 N.am      1 <0>        -0.6093
     16 C12         0.1095   -4.2329    2.6349 C.3       1 <0>         0.2670
     17 H1         -0.8236   -3.6791    2.7377 H         1 <0>         0.0679
     18 C13         1.2846   -3.2985    2.7649 C.ar      1 <0>        -0.1026
     19 C14         2.5565   -3.8100    2.9450 C.ar      1 <0>        -0.0390
     20 C15         3.6353   -2.9555    3.0650 C.ar      1 <0>        -0.1498
     21 C16         3.4418   -1.5831    3.0041 C.ar      1 <0>         0.1190
     22 C17         2.1647   -1.0724    2.8229 C.ar      1 <0>        -0.2100
     23 C18         1.0898   -1.9312    2.6983 C.ar      1 <0>        -0.0769
     24 O3          4.5014   -0.7404    3.1223 O.3       1 <0>        -0.3153
     25 C19         4.2275    0.6603    3.0501 C.3       1 <0>         0.0874
     26 C20         5.5133    1.4319    3.2000 C.2       1 <0>        -0.1524
     27 C21         5.7720    2.4356    2.3989 C.2       1 <0>        -0.1758
     28 C22         0.1716   -5.0828    5.1056 C.3       1 <0>         0.1625
     29 C23         1.5847   -4.9086    5.5993 C.2       1 <0>        -0.1585
     30 C24         1.9099   -3.8461    6.2931 C.2       1 <0>        -0.1826
     31 O4          0.3177   -7.2403    0.6264 O.3       1 <0>        -0.6530
     32 H2         -4.6546   -0.5679   -1.4072 H         1 <0>         0.0721
     33 H3         -4.7336   -1.6227   -2.8388 H         1 <0>         0.0705
     34 H4         -5.5510   -2.1038   -1.3325 H         1 <0>         0.0685
     35 H5         -2.3240   -1.7937   -3.0549 H         1 <0>         0.1315
     36 H6         -0.2776   -2.9453   -2.3267 H         1 <0>         0.1362
     37 H7         -2.2492   -4.1246    1.2960 H         1 <0>         0.1467
     38 H8          2.7067   -4.8784    2.9923 H         1 <0>         0.1216
     39 H9          4.6285   -3.3555    3.2063 H         1 <0>         0.1235
     40 H10         2.0114   -0.0044    2.7752 H         1 <0>         0.1204
     41 H11         0.0960   -1.5343    2.5528 H         1 <0>         0.1198
     42 H12         3.7745    0.8928    2.0864 H         1 <0>         0.0655
     43 H13         3.5417    0.9381    3.8505 H         1 <0>         0.0695
     44 H14         6.2214    1.1574    3.9678 H         1 <0>         0.1184
     45 H15         5.0639    2.7101    1.6311 H         1 <0>         0.0993
     46 H16         6.6935    2.9886    2.5063 H         1 <0>         0.1061
     47 H17        -0.4088   -4.1913    5.3433 H         1 <0>         0.0783
     48 H18        -0.2784   -5.9492    5.5902 H         1 <0>         0.0864
     49 H19         2.3294   -5.6598    5.3812 H         1 <0>         0.1077
     50 H20         1.1652   -3.0949    6.5113 H         1 <0>         0.0931
     51 H21         2.9226   -3.7213    6.6470 H         1 <0>         0.0942
@<TRIPOS>BOND
     1    1    2 1
     2    1   32 1
     3    1   33 1
     4    1   34 1
     5    2    7 ar
     6    2    3 ar
     7    3    4 ar
     8    3   35 1
     9    4    5 ar
    10    4   36 1
    11    5    6 ar
    12    5    9 1
    13    6    7 ar
    14    6   37 1
    15    7    8 1
    16    9   10 2
    17    9   11 1
    18   11   16 1
    19   11   12 2
    20   12   13 1
    21   12   31 1
    22   13   14 2
    23   13   15 am
    24   15   16 1
    25   15   28 1
    26   16   17 1
    27   16   18 1
    28   18   23 ar
    29   18   19 ar
    30   19   20 ar
    31   19   38 1
    32   20   21 ar
    33   20   39 1
    34   21   22 ar
    35   21   24 1
    36   22   23 ar
    37   22   40 1
    38   23   41 1
    39   24   25 1
    40   25   26 1
    41   25   42 1
    42   25   43 1
    43   26   27 2
    44   26   44 1
    45   27   45 1
    46   27   46 1
    47   28   29 1
    48   28   47 1
    49   28   48 1
    50   29   30 2
    51   29   49 1
    52   30   50 1
    53   30   51 1
@<TRIPOS>MOLECULE
ZINC39765160
   52    56     0     0     0
SMALL
USER_CHARGES

@<TRIPOS>ATOM
      1 C1         -0.0184    1.5028    0.0103 C.3       1 <0>        -0.1143
      2 C2          0.0021   -0.0041    0.0020 C.ar      1 <0>        -0.0850
      3 C3          0.0057   -0.6887   -1.1989 C.ar      1 <0>        -0.1218
      4 C4          0.0245   -2.0709   -1.2065 C.ar      1 <0>        -0.0959
      5 C5          0.0400   -2.7685   -0.0132 C.ar      1 <0>        -0.0766
      6 C6          0.0373   -2.0839    1.1877 C.ar      1 <0>        -0.0949
      7 C7          0.0229   -0.7016    1.1953 C.ar      1 <0>        -0.1211
      8 C8          0.0595   -4.2753   -0.0215 C.3       1 <0>        -0.0673
      9 S1          1.7773   -4.8578   -0.0342 S.3       1 <0>         0.0083
     10 C9          1.6320   -6.6138   -0.0429 C.2       1 <0>         0.4318
     11 N1          0.4198   -7.1554   -0.0445 N.2       1 <0>        -0.6834
     12 C10         0.2440   -8.4648   -0.1433 C.2       1 <0>         0.5250
     13 O1         -0.8813   -8.9229   -0.0927 O.2       1 <0>        -0.5014
     14 C11         1.4077   -9.3889   -0.3165 C.3       1 <0>        -0.2180
     15 H1          1.3883   -9.7723   -1.3367 H         1 <0>         0.1196
     16 C12         1.3410  -10.5761    0.6385 C.3       1 <0>         0.0630
     17 H2          0.5057  -11.2209    0.3658 H         1 <0>         0.1052
     18 C13         2.6400  -11.3477    0.5266 C.2       1 <0>        -0.3864
     19 C14         3.8277  -10.6604    0.2614 C.2       1 <0>         0.3033
     20 C15         5.1374  -11.4085    0.1810 C.3       1 <0>        -0.0836
     21 C16         5.0631  -12.6584    1.0613 C.3       1 <0>        -0.1122
     22 C17         3.8759  -13.5109    0.6018 C.3       1 <0>        -0.1352
     23 C18         2.6175  -12.6905    0.6891 C.2       1 <0>         0.3477
     24 O2          1.4459  -13.3051    0.9337 O.3       1 <0>        -0.6049
     25 N2          3.8290   -9.3576    0.0488 N.2       1 <0>        -0.6061
     26 C19         2.7101   -8.6653   -0.1133 C.2       1 <0>         0.4933
     27 N3          2.7427   -7.3501   -0.0531 N.2       1 <0>        -0.6130
     28 C20         1.1620  -10.0826    2.0512 C.ar      1 <0>        -0.0168
     29 C21         2.1013   -9.2467    2.6354 C.ar      1 <0>        -0.1737
     30 C22         1.9035   -8.8142    3.9330 C.ar      1 <0>         0.0907
     31 N4          0.8375   -9.1880    4.6134 N.ar      1 <0>        -0.4928
     32 C23        -0.0761   -9.9819    4.0900 C.ar      1 <0>         0.0887
     33 C24         0.0512  -10.4491    2.7956 C.ar      1 <0>        -0.1475
     34 H3          1.0042    1.8801    0.0026 H         1 <0>         0.0701
     35 H4         -0.5455    1.8639   -0.8728 H         1 <0>         0.0650
     36 H5         -0.5286    1.8543    0.9071 H         1 <0>         0.0652
     37 H6         -0.0064   -0.1436   -2.1312 H         1 <0>         0.1225
     38 H7          0.0266   -2.6057   -2.1448 H         1 <0>         0.1258
     39 H8          0.0491   -2.6289    2.1200 H         1 <0>         0.1265
     40 H9          0.0245   -0.1667    2.1335 H         1 <0>         0.1229
     41 H10        -0.4447   -4.6501    0.8693 H         1 <0>         0.1041
     42 H11        -0.4546   -4.6404   -0.9106 H         1 <0>         0.1029
     43 H12         5.3259  -11.7018   -0.8518 H         1 <0>         0.0918
     44 H13         5.9455  -10.7655    0.5299 H         1 <0>         0.0929
     45 H14         5.9850  -13.2313    0.9619 H         1 <0>         0.0765
     46 H15         4.9220  -12.3653    2.1016 H         1 <0>         0.0691
     47 H16         4.0329  -13.8289   -0.4289 H         1 <0>         0.0890
     48 H17         3.7855  -14.3865    1.2447 H         1 <0>         0.0838
     49 H18         2.9767   -8.9377    2.0835 H         1 <0>         0.1366
     50 H19         2.6305   -8.1629    4.3952 H         1 <0>         0.1486
     51 H20        -0.9358  -10.2669    4.6782 H         1 <0>         0.1503
     52 H21        -0.7029  -11.0950    2.3707 H         1 <0>         0.1319
@<TRIPOS>BOND
     1    1    2 1
     2    1   34 1
     3    1   35 1
     4    1   36 1
     5    2    7 ar
     6    2    3 ar
     7    3    4 ar
     8    3   37 1
     9    4    5 ar
    10    4   38 1
    11    5    6 ar
    12    5    8 1
    13    6    7 ar
    14    6   39 1
    15    7   40 1
    16    8    9 1
    17    8   41 1
    18    8   42 1
    19    9   10 1
    20   10   27 1
    21   10   11 2
    22   11   12 1
    23   12   13 2
    24   12   14 1
    25   14   15 1
    26   14   26 1
    27   14   16 1
    28   16   17 1
    29   16   18 1
    30   16   28 1
    31   18   23 2
    32   18   19 1
    33   19   20 1
    34   19   25 2
    35   20   21 1
    36   20   43 1
    37   20   44 1
    38   21   22 1
    39   21   45 1
    40   21   46 1
    41   22   23 1
    42   22   47 1
    43   22   48 1
    44   23   24 1
    45   25   26 1
    46   26   27 2
    47   28   33 ar
    48   28   29 ar
    49   29   30 ar
    50   29   49 1
    51   30   31 ar
    52   30   50 1
    53   31   32 ar
    54   32   33 ar
    55   32   51 1
    56   33   52 1
@<TRIPOS>MOLECULE
ZINC24070927
   40    41     0     0     0
SMALL
USER_CHARGES
N-[4-(isopropylsulfamoyl)phenyl]-5-methyl-thiophene-2-sulfonamide
@<TRIPOS>ATOM
      1 C1          2.9102    3.4398    7.4997 C.3       1 <0>        -0.0728
      2 C2          1.4120    3.3691    7.3527 C.2       1 <0>        -0.1431
      3 C3          0.4613    4.1563    7.9129 C.2       1 <0>        -0.1855
      4 C4         -0.8686    3.9034    7.6331 C.2       1 <0>        -0.0494
      5 C5         -1.1826    2.8759    6.8068 C.2       1 <0>        -0.7016
      6 S1          0.4286    2.2228    6.4009 S.3       1 <0>         0.1279
      7 S2         -2.7696    2.3233    6.2769 S.o2      1 <0>         2.6275
      8 O1         -3.7122    2.8496    7.2009 O.2       1 <0>        -0.9890
      9 O2         -2.6500    0.9308    6.0205 O.2       1 <0>        -1.0253
     10 N1         -3.0792    3.0479    4.8204 N.2       1 <0>        -1.0924
     11 C6         -2.2791    2.7590    3.7126 C.ar      1 <0>         0.2813
     12 C7         -2.4213    1.5474    3.0481 C.ar      1 <0>        -0.1829
     13 C8         -1.6289    1.2652    1.9528 C.ar      1 <0>        -0.0075
     14 C9         -0.6947    2.1870    1.5174 C.ar      1 <0>        -0.7329
     15 C10        -0.5466    3.3918    2.1800 C.ar      1 <0>        -0.0139
     16 C11        -1.3396    3.6828    3.2725 C.ar      1 <0>        -0.1772
     17 S3          0.3142    1.8228    0.1195 S.o2      1 <0>         2.6950
     18 O3          0.3640    0.4067    0.0125 O.2       1 <0>        -0.9748
     19 O4          1.4846    2.6189    0.2449 O.2       1 <0>        -0.9703
     20 N2         -0.4896    2.3708   -1.2206 N.pl3     1 <0>        -1.1253
     21 C12        -0.7297    3.8055   -1.3951 C.3       1 <0>         0.1492
     22 C13         0.3776    4.4060   -2.2633 C.3       1 <0>        -0.1685
     23 C14        -2.0833    4.0168   -2.0764 C.3       1 <0>        -0.1593
     24 H1          3.1743    4.2748    8.1653 H         1 <0>         0.0787
     25 H2          3.3684    3.5988    6.5124 H         1 <0>         0.0792
     26 H3          3.2814    2.4974    7.9287 H         1 <0>         0.0769
     27 H4          0.7386    4.9690    8.5678 H         1 <0>         0.1308
     28 H5         -1.6457    4.5157    8.0662 H         1 <0>         0.1391
     29 H6         -3.1510    0.8272    3.3875 H         1 <0>         0.1242
     30 H7         -1.7393    0.3235    1.4356 H         1 <0>         0.1230
     31 H8          0.1873    4.1076    1.8402 H         1 <0>         0.1216
     32 H9         -1.2265    4.6257    3.7869 H         1 <0>         0.1181
     33 H10        -0.9804    1.6460   -1.8868 H         1 <0>         0.4337
     34 H11        -0.7252    4.2594   -0.3931 H         1 <0>         0.0801
     35 H12         0.1973    5.4832   -2.3943 H         1 <0>         0.0629
     36 H13         0.3809    3.9126   -3.2464 H         1 <0>         0.0589
     37 H14         1.3507    4.2540   -1.7734 H         1 <0>         0.0698
     38 H15        -2.2636    5.0940   -2.2074 H         1 <0>         0.0677
     39 H16        -2.8794    3.5850   -1.4521 H         1 <0>         0.0648
     40 H17        -2.0800    3.5233   -3.0595 H         1 <0>         0.0614
@<TRIPOS>BOND
     1    1    2 1
     2    1   24 1
     3    1   25 1
     4    1   26 1
     5    2    6 1
     6    2    3 2
     7    3    4 1
     8    3   27 1
     9    4    5 2
    10    4   28 1
    11    5    6 1
    12    5    7 1
    13    7    8 2
    14    7    9 2
    15    7   10 1
    16   10   11 1
    17   11   16 ar
    18   11   12 ar
    19   12   13 ar
    20   12   29 1
    21   13   14 ar
    22   13   30 1
    23   14   15 ar
    24   14   17 1
    25   15   16 ar
    26   15   31 1
    27   16   32 1
    28   17   18 2
    29   17   19 2
    30   17   20 1
    31   20   21 1
    32   20   33 1
    33   21   22 1
    34   21   23 1
    35   21   34 1
    36   22   35 1
    37   22   36 1
    38   22   37 1
    39   23   38 1
    40   23   39 1
    41   23   40 1
@<TRIPOS>MOLECULE
ZINC40125248
   49    51     0     0     0
SMALL
USER_CHARGES

@<TRIPOS>ATOM
      1 C1         -0.0442    1.5494   -0.1107 C.3       1 <0>         0.0998
      2 N1         -0.0036    0.0849   -0.1047 N.pl3     1 <0>        -0.6442
      3 C2          1.2846   -0.6122   -0.1330 C.3       1 <0>         0.0978
      4 C3         -1.1930   -0.6466   -0.0720 C.ar      1 <0>         0.2012
      5 C4         -1.1561   -2.0352   -0.0605 C.ar      1 <0>        -0.1974
      6 C5         -2.3341   -2.7554   -0.0277 C.ar      1 <0>        -0.0688
      7 C6         -3.5493   -2.0958   -0.0068 C.ar      1 <0>        -0.1259
      8 C7         -3.5896   -0.7135   -0.0182 C.ar      1 <0>        -0.0438
      9 C8         -2.4153    0.0129   -0.0452 C.ar      1 <0>        -0.1924
     10 C9         -4.8326   -2.8850    0.0279 C.3       1 <0>         0.2661
     11 H1         -4.6288   -3.9189    0.3065 H         1 <0>         0.0686
     12 C10        -5.5102   -2.8345   -1.3215 C.2       1 <0>        -0.4993
     13 C11        -6.7171   -2.2528   -1.1309 C.2       1 <0>         0.2578
     14 C12        -6.8716   -1.9119    0.2989 C.2       1 <0>         0.5110
     15 O1         -7.8481   -1.3787    0.7870 O.2       1 <0>        -0.5433
     16 N2         -5.7708   -2.2810    0.9813 N.am      1 <0>        -0.7239
     17 O2         -7.6363   -2.0198   -2.0961 O.3       1 <0>        -0.6592
     18 C13        -4.9652   -3.3219   -2.5926 C.2       1 <0>         0.5078
     19 O3         -4.7090   -2.5361   -3.4860 O.2       1 <0>        -0.4788
     20 C14        -4.7274   -4.7654   -2.7886 C.ar      1 <0>        -0.1711
     21 C15        -5.1353   -5.6817   -1.8144 C.ar      1 <0>        -0.0244
     22 C16        -4.9115   -7.0271   -2.0011 C.ar      1 <0>        -0.1671
     23 C17        -4.2807   -7.4753   -3.1564 C.ar      1 <0>         0.1388
     24 C18        -3.8730   -6.5674   -4.1274 C.ar      1 <0>        -0.2252
     25 C19        -4.0986   -5.2208   -3.9515 C.ar      1 <0>        -0.0344
     26 O4         -4.0620   -8.8023   -3.3365 O.3       1 <0>        -0.3121
     27 C20        -3.4091   -9.1940   -4.5458 C.3       1 <0>         0.0849
     28 C21        -3.2534  -10.6927   -4.5700 C.2       1 <0>        -0.1534
     29 C22        -3.5386  -11.3634   -5.6585 C.2       1 <0>        -0.1746
     30 H2          0.9727    1.9409   -0.1375 H         1 <0>         0.0673
     31 H3         -0.5896    1.8941   -0.9892 H         1 <0>         0.0518
     32 H4         -0.5459    1.9026    0.7902 H         1 <0>         0.0506
     33 H5          1.6293   -0.7803    0.8873 H         1 <0>         0.0423
     34 H6          1.1682   -1.5703   -0.6396 H         1 <0>         0.0670
     35 H7          2.0148   -0.0048   -0.6678 H         1 <0>         0.0606
     36 H8         -0.2074   -2.5509   -0.0776 H         1 <0>         0.1161
     37 H9         -2.3061   -3.8350   -0.0188 H         1 <0>         0.1181
     38 H10        -4.5403   -0.2015   -0.0018 H         1 <0>         0.1164
     39 H11        -2.4474    1.0924   -0.0495 H         1 <0>         0.1149
     40 H12        -5.6235   -2.1678    1.9333 H         1 <0>         0.4051
     41 H13        -5.6250   -5.3345   -0.9167 H         1 <0>         0.1422
     42 H14        -5.2260   -7.7355   -1.2490 H         1 <0>         0.1308
     43 H15        -3.3828   -6.9195   -5.0230 H         1 <0>         0.1253
     44 H16        -3.7859   -4.5167   -4.7084 H         1 <0>         0.1313
     45 H17        -4.0068   -8.8770   -5.4005 H         1 <0>         0.0679
     46 H18        -2.4262   -8.7256   -4.5962 H         1 <0>         0.0724
     47 H19        -2.9066  -11.2138   -3.6899 H         1 <0>         0.1192
     48 H20        -3.8854  -10.8423   -6.5386 H         1 <0>         0.0996
     49 H21        -3.4270  -12.4375   -5.6758 H         1 <0>         0.1066
@<TRIPOS>BOND
     1    1    2 1
     2    1   30 1
     3    1   31 1
     4    1   32 1
     5    2    3 1
     6    2    4 1
     7    3   33 1
     8    3   34 1
     9    3   35 1
    10    4    9 ar
    11    4    5 ar
    12    5    6 ar
    13    5   36 1
    14    6    7 ar
    15    6   37 1
    16    7    8 ar
    17    7   10 1
    18    8    9 ar
    19    8   38 1
    20    9   39 1
    21   10   11 1
    22   10   16 1
    23   10   12 1
    24   12   13 2
    25   12   18 1
    26   13   14 1
    27   13   17 1
    28   14   15 2
    29   14   16 am
    30   16   40 1
    31   18   19 2
    32   18   20 1
    33   20   25 ar
    34   20   21 ar
    35   21   22 ar
    36   21   41 1
    37   22   23 ar
    38   22   42 1
    39   23   24 ar
    40   23   26 1
    41   24   25 ar
    42   24   43 1
    43   25   44 1
    44   26   27 1
    45   27   28 1
    46   27   45 1
    47   27   46 1
    48   28   29 2
    49   28   47 1
    50   29   48 1
    51   29   49 1
@<TRIPOS>MOLECULE
ZINC58201805
   41    42     0     0     0
SMALL
USER_CHARGES

@<TRIPOS>ATOM
      1 C1          0.1162    0.0858    1.0175 C.3       1 <0>         0.1134
      2 N1         -0.1383   -1.1930    0.3496 N.pl3     1 <0>        -0.6778
      3 C2         -0.4646   -2.3812    1.1421 C.3       1 <0>         0.1189
      4 C3         -0.0698   -1.2797   -1.0458 C.ar      1 <0>         0.1364
      5 C4         -1.2072   -1.0449   -1.8180 C.ar      1 <0>         0.1690
      6 C5         -1.1325   -1.1318   -3.2000 C.ar      1 <0>        -0.1273
      7 C6          0.0671   -1.4505   -3.8092 C.ar      1 <0>        -0.0886
      8 C7          1.1951   -1.6838   -3.0446 C.ar      1 <0>        -0.1364
      9 C8          1.1315   -1.5938   -1.6655 C.ar      1 <0>        -0.0215
     10 Cl1         2.5523   -1.8806   -0.7101 Cl        1 <0>        -0.0686
     11 N2         -2.4219   -0.7226   -1.1992 N.am      1 <0>        -0.6626
     12 C9         -3.5868   -0.9790   -1.8268 C.2       1 <0>         0.5677
     13 O1         -3.5885   -1.5802   -2.8834 O.2       1 <0>        -0.5208
     14 C10        -4.8624   -0.5290   -1.2303 C.ar      1 <0>        -0.1088
     15 C11        -4.8627    0.1668   -0.0198 C.ar      1 <0>        -0.1947
     16 C12        -6.0546    0.5857    0.5350 C.ar      1 <0>        -0.0732
     17 C13        -7.2513    0.3192   -0.1038 C.ar      1 <0>        -0.2318
     18 C14        -7.2620   -0.3723   -1.3093 C.ar      1 <0>         0.2756
     19 C15        -6.0691   -0.7931   -1.8778 C.ar      1 <0>        -0.1123
     20 N3         -8.4741   -0.6397   -1.9506 N.2       1 <0>        -1.0964
     21 S1         -9.8981   -0.1328   -1.2743 S.o2      1 <0>         2.5270
     22 O2         -9.9942   -0.8498   -0.0513 O.2       1 <0>        -1.0301
     23 O3         -9.8164    1.2859   -1.2779 O.2       1 <0>        -1.0300
     24 C16       -11.1848   -0.6873   -2.4265 C.3       1 <0>        -0.6362
     25 H1          1.1784    0.1709    1.2466 H         1 <0>         0.0370
     26 H2         -0.1806    0.9039    0.3612 H         1 <0>         0.0537
     27 H3         -0.4598    0.1340    1.9416 H         1 <0>         0.0607
     28 H4         -1.5446   -2.4438    1.2752 H         1 <0>         0.0370
     29 H5         -0.1100   -3.2722    0.6239 H         1 <0>         0.0536
     30 H6          0.0182   -2.3115    2.1169 H         1 <0>         0.0581
     31 H7         -2.0116   -0.9509   -3.8006 H         1 <0>         0.1549
     32 H8          0.1230   -1.5177   -4.8856 H         1 <0>         0.1337
     33 H9          2.1295   -1.9328   -3.5255 H         1 <0>         0.1302
     34 H10        -2.4247   -0.3149   -0.3190 H         1 <0>         0.4137
     35 H11        -3.9300    0.3768    0.4826 H         1 <0>         0.1017
     36 H12        -6.0526    1.1235    1.4716 H         1 <0>         0.1083
     37 H13        -8.1811    0.6490    0.3357 H         1 <0>         0.1061
     38 H14        -6.0748   -1.3272   -2.8164 H         1 <0>         0.1267
     39 H15       -11.1463   -1.7727   -2.5191 H         1 <0>         0.1159
     40 H16       -12.1631   -0.3893   -2.0494 H         1 <0>         0.1018
     41 H17       -11.0181   -0.2332   -3.4033 H         1 <0>         0.1159
@<TRIPOS>BOND
     1    1    2 1
     2    1   25 1
     3    1   26 1
     4    1   27 1
     5    2    3 1
     6    2    4 1
     7    3   28 1
     8    3   29 1
     9    3   30 1
    10    4    9 ar
    11    4    5 ar
    12    5    6 ar
    13    5   11 1
    14    6    7 ar
    15    6   31 1
    16    7    8 ar
    17    7   32 1
    18    8    9 ar
    19    8   33 1
    20    9   10 1
    21   11   12 am
    22   11   34 1
    23   12   13 2
    24   12   14 1
    25   14   19 ar
    26   14   15 ar
    27   15   16 ar
    28   15   35 1
    29   16   17 ar
    30   16   36 1
    31   17   18 ar
    32   17   37 1
    33   18   19 ar
    34   18   20 1
    35   19   38 1
    36   20   21 1
    37   21   22 2
    38   21   23 2
    39   21   24 1
    40   24   39 1
    41   24   40 1
    42   24   41 1
@<TRIPOS>MOLECULE
ZINC60953354
   46    49     0     0     0
SMALL
USER_CHARGES

@<TRIPOS>ATOM
      1 C1          0.0024    1.3820   -0.0466 C.ar      1 <0>        -0.1552
      2 C2          1.1890    2.0919   -0.0678 C.ar      1 <0>        -0.0829
      3 C3          2.3934    1.4198   -0.1026 C.ar      1 <0>        -0.1553
      4 C4          2.4188    0.0286   -0.1152 C.ar      1 <0>         0.1367
      5 C5          1.2300   -0.6791   -0.0903 C.ar      1 <0>        -0.1754
      6 C6          0.0239    0.0011   -0.0581 C.ar      1 <0>        -0.0681
      7 C7          1.2130   -2.1866   -0.0914 C.3       1 <0>         0.1906
      8 C8          2.5689   -2.7173   -0.5637 C.3       1 <0>        -0.1679
      9 C9          3.6706   -1.9783    0.2065 C.3       1 <0>         0.0668
     10 O1          3.6239   -0.5972   -0.1549 O.3       1 <0>        -0.3171
     11 N1          0.1621   -2.6616   -0.9947 N.am      1 <0>        -0.7224
     12 C10        -1.1059   -2.7760   -0.5524 C.2       1 <0>         0.5274
     13 O2         -1.3768   -2.4856    0.5936 O.2       1 <0>        -0.5306
     14 C11        -2.1869   -3.2646   -1.4816 C.3       1 <0>        -0.1613
     15 C12        -3.5224   -3.3012   -0.7358 C.3       1 <0>         0.1336
     16 N2         -4.5733   -3.7762   -1.6392 N.pl3     1 <0>        -0.4872
     17 C13        -5.4274   -3.0089   -2.3972 C.2       1 <0>         0.1407
     18 N3         -6.2051   -3.8355   -3.0569 N.2       1 <0>        -0.2697
     19 N4         -5.9003   -5.0499   -2.7676 N.2       1 <0>        -0.3377
     20 C14        -4.9056   -5.0734   -1.9091 C.2       1 <0>         0.3791
     21 S1         -4.1446   -6.5102   -1.2301 S.3       1 <0>        -0.7968
     22 C15        -5.4632   -1.5322   -2.4569 C.ar      1 <0>         0.0154
     23 C16        -4.3566   -0.7876   -2.0453 C.ar      1 <0>        -0.1041
     24 C17        -4.3952    0.5898   -2.1035 C.ar      1 <0>        -0.1445
     25 C18        -5.5299    1.2347   -2.5695 C.ar      1 <0>         0.0884
     26 C19        -6.6315    0.5003   -2.9790 C.ar      1 <0>        -0.1464
     27 C20        -6.6015   -0.8777   -2.9304 C.ar      1 <0>        -0.0621
     28 F1         -5.5624    2.5842   -2.6244 F         1 <0>        -0.1430
     29 H1         -0.9408    1.9072   -0.0164 H         1 <0>         0.1236
     30 H2          1.1728    3.1717   -0.0576 H         1 <0>         0.1275
     31 H3          3.3194    1.9752   -0.1206 H         1 <0>         0.1289
     32 H4         -0.9042   -0.5510   -0.0420 H         1 <0>         0.1326
     33 H5          1.0137   -2.5478    0.9176 H         1 <0>         0.1028
     34 H6          2.6348   -3.7867   -0.3635 H         1 <0>         0.0948
     35 H7          2.6825   -2.5354   -1.6324 H         1 <0>         0.0849
     36 H8          3.5029   -2.0832    1.2784 H         1 <0>         0.0686
     37 H9          4.6437   -2.3936   -0.0557 H         1 <0>         0.1134
     38 H10         0.3788   -2.8939   -1.9112 H         1 <0>         0.4042
     39 H11        -2.2653   -2.5901   -2.3343 H         1 <0>         0.0954
     40 H12        -1.9391   -4.2664   -1.8324 H         1 <0>         0.1171
     41 H13        -3.4440   -3.9757    0.1168 H         1 <0>         0.1082
     42 H14        -3.7702   -2.2994   -0.3851 H         1 <0>         0.0932
     43 H15        -3.4720   -1.2891   -1.6816 H         1 <0>         0.1358
     44 H16        -3.5397    1.1669   -1.7849 H         1 <0>         0.1353
     45 H17        -7.5134    1.0078   -3.3410 H         1 <0>         0.1382
     46 H18        -7.4589   -1.4492   -3.2539 H         1 <0>         0.1446
@<TRIPOS>BOND
     1    1    6 ar
     2    1    2 ar
     3    1   29 1
     4    2    3 ar
     5    2   30 1
     6    3    4 ar
     7    3   31 1
     8    4   10 1
     9    4    5 ar
    10    5    6 ar
    11    5    7 1
    12    6   32 1
    13    7    8 1
    14    7   11 1
    15    7   33 1
    16    8    9 1
    17    8   34 1
    18    8   35 1
    19    9   10 1
    20    9   36 1
    21    9   37 1
    22   11   12 am
    23   11   38 1
    24   12   13 2
    25   12   14 1
    26   14   15 1
    27   14   39 1
    28   14   40 1
    29   15   41 1
    30   15   42 1
    31   15   16 1
    32   16   20 1
    33   16   17 1
    34   17   22 1
    35   17   18 2
    36   18   19 1
    37   19   20 2
    38   20   21 1
    39   22   27 ar
    40   22   23 ar
    41   23   24 ar
    42   23   43 1
    43   24   25 ar
    44   24   44 1
    45   25   26 ar
    46   25   28 1
    47   26   27 ar
    48   26   45 1
    49   27   46 1
@<TRIPOS>MOLECULE
ZINC65396271
   48    51     0     0     0
SMALL
USER_CHARGES

@<TRIPOS>ATOM
      1 C1         -1.1035    1.8692    0.1865 C.3       1 <0>        -0.0788
      2 C2         -0.6457    0.4340    0.2263 C.2       1 <0>         0.1021
      3 C3         -0.3196   -0.3471   -0.8722 C.2       1 <0>        -0.2880
      4 C4          0.0517   -1.5840   -0.4158 C.2       1 <0>         0.3254
      5 N1         -0.0502   -1.5723    0.9212 N.pl3     1 <0>        -0.3145
      6 N2         -0.4810   -0.2925    1.3071 N.2       1 <0>        -0.2825
      7 C5          0.2401   -2.6928    1.8192 C.3       1 <0>         0.0502
      8 C6          1.6904   -2.6477    2.2262 C.2       1 <0>         0.4848
      9 O1          2.4144   -1.7617    1.8052 O.co2     1 <0>        -0.6688
     10 O2          2.1397   -3.4973    2.9765 O.co2     1 <0>        -0.6871
     11 N3          0.4594   -2.5976   -1.2830 N.am      1 <0>        -0.6417
     12 C7          0.6770   -2.2782   -2.5763 C.2       1 <0>         0.5409
     13 O3          0.8460   -3.1698   -3.3810 O.2       1 <0>        -0.5319
     14 C8          0.7159   -0.8531   -3.0506 C.3       1 <0>        -0.1369
     15 C9         -0.3405   -0.0013   -2.3395 C.3       1 <0>         0.0204
     16 H1         -0.1092    1.0557   -2.4710 H         1 <0>         0.0922
     17 C10        -1.7231   -0.3035   -2.9208 C.3       1 <0>        -0.0064
     18 C11        -2.7397    0.6244   -2.3071 C.ar      1 <0>        -0.0512
     19 C12        -2.7102    1.9745   -2.6021 C.ar      1 <0>        -0.1170
     20 C13        -3.6427    2.8256   -2.0392 C.ar      1 <0>        -0.1196
     21 C14        -4.6051    2.3265   -1.1815 C.ar      1 <0>        -0.1250
     22 C15        -4.6353    0.9761   -0.8872 C.ar      1 <0>        -0.1152
     23 C16        -3.7054    0.1244   -1.4535 C.ar      1 <0>        -0.1031
     24 C17        -1.6954   -0.1014   -4.4139 C.ar      1 <0>        -0.0647
     25 C18        -1.0801    1.0148   -4.9490 C.ar      1 <0>        -0.1169
     26 C19        -1.0547    1.2001   -6.3187 C.ar      1 <0>        -0.1178
     27 C20        -1.6442    0.2691   -7.1532 C.ar      1 <0>        -0.1261
     28 C21        -2.2588   -0.8476   -6.6181 C.ar      1 <0>        -0.1162
     29 C22        -2.2805   -1.0351   -5.2487 C.ar      1 <0>        -0.1106
     30 H2         -0.2486    2.5276    0.3410 H         1 <0>         0.0694
     31 H3         -1.5539    2.0802   -0.7834 H         1 <0>         0.0836
     32 H4         -1.8389    2.0380    0.9731 H         1 <0>         0.0662
     33 H5         -0.3887   -2.6197    2.7065 H         1 <0>         0.0993
     34 H6          0.0359   -3.6323    1.3056 H         1 <0>         0.0850
     35 H7          0.5827   -3.5060   -0.9658 H         1 <0>         0.4111
     36 H8          1.7034   -0.4372   -2.8508 H         1 <0>         0.1068
     37 H9          0.5302   -0.8290   -4.1244 H         1 <0>         0.1090
     38 H10        -1.9928   -1.3360   -2.6988 H         1 <0>         0.0823
     39 H11        -1.9583    2.3645   -3.2721 H         1 <0>         0.1240
     40 H12        -3.6192    3.8806   -2.2691 H         1 <0>         0.1186
     41 H13        -5.3333    2.9915   -0.7412 H         1 <0>         0.1165
     42 H14        -5.3870    0.5862   -0.2169 H         1 <0>         0.1169
     43 H15        -3.7312   -0.9312   -1.2265 H         1 <0>         0.1146
     44 H16        -0.6194    1.7422   -4.2971 H         1 <0>         0.1255
     45 H17        -0.5745    2.0725   -6.7367 H         1 <0>         0.1205
     46 H18        -1.6250    0.4142   -8.2232 H         1 <0>         0.1178
     47 H19        -2.7197   -1.5748   -7.2701 H         1 <0>         0.1188
     48 H20        -2.7574   -1.9094   -4.8308 H         1 <0>         0.1184
@<TRIPOS>BOND
     1    1    2 1
     2    1   30 1
     3    1   31 1
     4    1   32 1
     5    2    6 2
     6    2    3 1
     7    3   15 1
     8    3    4 2
     9    4    5 1
    10    4   11 1
    11    5    6 1
    12    5    7 1
    13    7    8 1
    14    7   33 1
    15    7   34 1
    16    8    9 2
    17    8   10 1
    18   11   12 am
    19   11   35 1
    20   12   13 2
    21   12   14 1
    22   14   15 1
    23   14   36 1
    24   14   37 1
    25   15   16 1
    26   15   17 1
    27   17   18 1
    28   17   24 1
    29   17   38 1
    30   18   23 ar
    31   18   19 ar
    32   19   20 ar
    33   19   39 1
    34   20   21 ar
    35   20   40 1
    36   21   22 ar
    37   21   41 1
    38   22   23 ar
    39   22   42 1
    40   23   43 1
    41   24   29 ar
    42   24   25 ar
    43   25   26 ar
    44   25   44 1
    45   26   27 ar
    46   26   45 1
    47   27   28 ar
    48   27   46 1
    49   28   29 ar
    50   28   47 1
    51   29   48 1
@<TRIPOS>MOLECULE
ZINC12406528
   44    46     0     0     0
SMALL
USER_CHARGES
3-[2,5-dimethyl-3-[(E)-(pyridine-4-carbonylhydrazono)methyl]pyrrol-1-yl]benzoic acid
@<TRIPOS>ATOM
      1 C1        -10.9878    4.4618    0.1292 C.3       1 <0>        -0.0916
      2 C2         -9.4837    4.5532    0.1150 C.2       1 <0>         0.0347
      3 C3         -8.6362    3.5079    0.1015 C.2       1 <0>        -0.1716
      4 C4         -7.2813    4.0676    0.0911 C.2       1 <0>        -0.1694
      5 C5         -7.4278    5.4255    0.1049 C.2       1 <0>         0.1061
      6 N1         -8.7582    5.7103    0.1138 N.pl3     1 <0>        -0.3899
      7 C6         -9.3039    7.0013    0.1260 C.ar      1 <0>         0.0821
      8 C7         -9.0954    7.8334    1.2194 C.ar      1 <0>        -0.1123
      9 C8         -9.6305    9.1078    1.2364 C.ar      1 <0>        -0.1265
     10 C9        -10.3755    9.5627    0.1675 C.ar      1 <0>        -0.0659
     11 C10       -10.5912    8.7343   -0.9356 C.ar      1 <0>        -0.1011
     12 C11       -10.0463    7.4497   -0.9544 C.ar      1 <0>        -0.0717
     13 C12       -11.3889    9.2181   -2.0813 C.2       1 <0>         0.4897
     14 O1        -11.5752    8.4957   -3.0398 O.co2     1 <0>        -0.6260
     15 C13        -6.3085    6.4346    0.1063 C.3       1 <0>        -0.0938
     16 C14        -6.0140    3.3152    0.0754 C.2       1 <0>         0.1787
     17 N2         -4.8817    3.9506    0.0681 N.2       1 <0>        -0.2611
     18 N3         -3.6771    3.2354    0.0532 N.am      1 <0>        -0.5793
     19 C15        -2.5018    3.8950    0.0455 C.2       1 <0>         0.5736
     20 O2         -2.4870    5.1107    0.0515 O.2       1 <0>        -0.4929
     21 C16        -1.2287    3.1391    0.0297 C.ar      1 <0>        -0.0803
     22 C17        -1.2233    1.7406    0.0173 C.ar      1 <0>        -0.1447
     23 C18        -0.0126    1.0758    0.0080 C.ar      1 <0>         0.0982
     24 N4          1.1252    1.7415    0.0007 N.ar      1 <0>        -0.4696
     25 C19         1.1650    3.0592    0.0069 C.ar      1 <0>         0.0994
     26 C20         0.0018    3.8038    0.0216 C.ar      1 <0>        -0.1123
     27 H1        -11.3404    4.4341    1.1602 H         1 <0>         0.0706
     28 H2        -11.4094    5.3309   -0.3758 H         1 <0>         0.0726
     29 H3        -11.3016    3.5543   -0.3866 H         1 <0>         0.0804
     30 H4         -8.9023    2.4612    0.0983 H         1 <0>         0.1454
     31 H5         -8.5129    7.4832    2.0587 H         1 <0>         0.1215
     32 H6         -9.4646    9.7498    2.0889 H         1 <0>         0.1274
     33 H7        -10.7914   10.5593    0.1841 H         1 <0>         0.1383
     34 H8        -10.2057    6.8060   -1.8069 H         1 <0>         0.1334
     35 H9         -6.0464    6.6879   -0.9209 H         1 <0>         0.0749
     36 H10        -6.6308    7.3339    0.6313 H         1 <0>         0.0638
     37 H11        -5.4390    6.0120    0.6096 H         1 <0>         0.1019
     38 H12        -6.0272    2.2353    0.0701 H         1 <0>         0.1161
     39 H13        -3.6890    2.2655    0.0484 H         1 <0>         0.3798
     40 H14        -2.1516    1.1888    0.0188 H         1 <0>         0.1380
     41 H15         0.0021   -0.0041    0.0020 H         1 <0>         0.1636
     42 H16         2.1201    3.5633    0.0002 H         1 <0>         0.1662
     43 H17         0.0419    4.8831    0.0263 H         1 <0>         0.1518
     44 O3        -11.9095   10.4604   -2.0628 O.co2     1 <0>        -0.7480
@<TRIPOS>BOND
     1    1    2 1
     2    1   27 1
     3    1   28 1
     4    1   29 1
     5    2    6 1
     6    2    3 2
     7    3    4 1
     8    3   30 1
     9    4    5 2
    10    4   16 1
    11    5    6 1
    12    5   15 1
    13    6    7 1
    14    7   12 ar
    15    7    8 ar
    16    8    9 ar
    17    8   31 1
    18    9   10 ar
    19    9   32 1
    20   10   11 ar
    21   10   33 1
    22   11   12 ar
    23   11   13 1
    24   12   34 1
    25   13   14 2
    26   13   44 1
    27   15   35 1
    28   15   36 1
    29   15   37 1
    30   16   17 2
    31   16   38 1
    32   17   18 1
    33   18   19 am
    34   18   39 1
    35   19   20 2
    36   19   21 1
    37   21   26 ar
    38   21   22 ar
    39   22   23 ar
    40   22   40 1
    41   23   24 ar
    42   23   41 1
    43   24   25 ar
    44   25   26 ar
    45   25   42 1
    46   26   43 1
@<TRIPOS>MOLECULE
ZINC33619262
   42    44     0     0     0
SMALL
USER_CHARGES
3-[3-(methanesulfonamido)phenyl]-5-methyl-1-phenyl-pyrazole-4-carboxylic acid
@<TRIPOS>ATOM
      1 C1         -4.0747   -0.0282    9.4090 C.3       1 <0>        -0.0870
      2 C2         -3.3732    0.0551    8.0779 C.2       1 <0>         0.0789
      3 C3         -3.9213    0.5157    6.8976 C.2       1 <0>        -0.2018
      4 C4         -2.8680    0.4074    5.8825 C.2       1 <0>         0.1305
      5 N1         -1.8087   -0.0905    6.4794 N.2       1 <0>        -0.2871
      6 N2         -2.1028   -0.3062    7.8287 N.pl3     1 <0>        -0.3316
      7 C5         -1.2110   -0.8261    8.7759 C.ar      1 <0>         0.1686
      8 C6          0.1086   -0.3945    8.7995 C.ar      1 <0>        -0.1145
      9 C7          0.9839   -0.9051    9.7379 C.ar      1 <0>        -0.1035
     10 C8          0.5502   -1.8532   10.6463 C.ar      1 <0>        -0.1299
     11 C9         -0.7620   -2.2889   10.6220 C.ar      1 <0>        -0.1002
     12 C10        -1.6435   -1.7784    9.6894 C.ar      1 <0>        -0.1316
     13 C11        -2.9795    0.7827    4.4525 C.ar      1 <0>         0.0033
     14 C12        -4.1820    0.5940    3.7719 C.ar      1 <0>        -0.0689
     15 C13        -4.2842    0.9434    2.4405 C.ar      1 <0>        -0.1116
     16 C14        -3.1987    1.4858    1.7786 C.ar      1 <0>        -0.0973
     17 C15        -1.9947    1.6725    2.4472 C.ar      1 <0>         0.1070
     18 C16        -1.8837    1.3240    3.7852 C.ar      1 <0>        -0.0917
     19 N3         -0.8985    2.2164    1.7735 N.pl3     1 <0>        -1.0721
     20 S1         -0.0414    1.2888    0.7023 S.o2      1 <0>         2.6141
     21 O1          0.9938    2.1411    0.2320 O.2       1 <0>        -0.9646
     22 O2         -1.0174    0.7727   -0.1923 O.2       1 <0>        -0.9535
     23 C17         0.6595   -0.0518    1.7034 C.3       1 <0>        -0.6747
     24 C18        -5.2904    1.0157    6.6974 C.2       1 <0>         0.5287
     25 O3         -6.1783    0.2471    6.3838 O.co2     1 <0>        -0.6277
     26 O4         -5.5602    2.3259    6.8617 O.co2     1 <0>        -0.7471
     27 H1         -5.1065    0.3382    9.3033 H         1 <0>         0.0926
     28 H2         -3.5396    0.5901   10.1448 H         1 <0>         0.0727
     29 H3         -4.0901   -1.0737    9.7505 H         1 <0>         0.0721
     30 H4          0.4490    0.3427    8.0874 H         1 <0>         0.1299
     31 H5          2.0093   -0.5668    9.7594 H         1 <0>         0.1281
     32 H6          1.2376   -2.2540   11.3765 H         1 <0>         0.1252
     33 H7         -1.0977   -3.0295   11.3328 H         1 <0>         0.1299
     34 H8         -2.6682   -2.1191    9.6709 H         1 <0>         0.1331
     35 H9         -5.0336    0.1740    4.2866 H         1 <0>         0.1466
     36 H10        -5.2165    0.7968    1.9154 H         1 <0>         0.1339
     37 H11        -3.2852    1.7616    0.7380 H         1 <0>         0.1340
     38 H12        -0.9503    1.4725    4.3079 H         1 <0>         0.1296
     39 H13        -0.6046    3.2608    1.9545 H         1 <0>         0.4478
     40 H14         1.2500   -0.7201    1.0594 H         1 <0>         0.1282
     41 H15        -0.1548   -0.6218    2.1746 H         1 <0>         0.1319
     42 H16         1.3083    0.3736    2.4832 H         1 <0>         0.1297
@<TRIPOS>BOND
     1    1    2 1
     2    1   27 1
     3    1   28 1
     4    1   29 1
     5    2    6 1
     6    2    3 2
     7    3    4 1
     8    3   24 1
     9    4    5 2
    10    4   13 1
    11    5    6 1
    12    6    7 1
    13    7   12 ar
    14    7    8 ar
    15    8    9 ar
    16    8   30 1
    17    9   10 ar
    18    9   31 1
    19   10   11 ar
    20   10   32 1
    21   11   12 ar
    22   11   33 1
    23   12   34 1
    24   13   18 ar
    25   13   14 ar
    26   14   15 ar
    27   14   35 1
    28   15   16 ar
    29   15   36 1
    30   16   17 ar
    31   16   37 1
    32   17   18 ar
    33   17   19 1
    34   18   38 1
    35   19   20 1
    36   19   39 1
    37   20   21 2
    38   20   22 2
    39   20   23 1
    40   23   40 1
    41   23   41 1
    42   23   42 1
    43   24   25 2
    44   24   26 1
@<TRIPOS>MOLECULE
ZINC06710553
   49    52     0     0     0
SMALL
USER_CHARGES

@<TRIPOS>ATOM
      1 C1         -0.0169    1.3983    0.0097 C.ar      1 <0>        -0.0448
      2 C2          1.1495    2.1054    0.0024 C.ar      1 <0>        -0.1430
      3 C3          2.3704    1.4395   -0.0128 C.ar      1 <0>         0.0606
      4 C4          2.4086    0.0324   -0.0207 C.ar      1 <0>         0.0277
      5 C5          1.2162   -0.6876   -0.0127 C.ar      1 <0>        -0.0238
      6 C6          0.0021   -0.0041    0.0020 C.ar      1 <0>        -0.1431
      7 C7         -1.2647   -0.7562    0.0100 C.2       1 <0>         0.5237
      8 O1         -2.3314   -0.1576    0.0234 O.co2     1 <0>        -0.6870
      9 O2         -1.2498   -1.9794    0.0033 O.co2     1 <0>        -0.6842
     10 N1          3.7189   -0.3276   -0.0355 N.2       1 <0>        -0.4574
     11 C8          4.4632    0.7388   -0.0372 C.2       1 <0>         0.2343
     12 N2          3.6836    1.8545   -0.0235 N.pl3     1 <0>        -0.4816
     13 C9          4.1548    3.2416   -0.0204 C.3       1 <0>         0.1529
     14 C10         4.3305    3.7092    1.4015 C.ar      1 <0>        -0.0698
     15 C11         3.2838    4.3073    2.0864 C.ar      1 <0>        -0.1481
     16 C12         3.4821    4.7235    3.3893 C.ar      1 <0>         0.1017
     17 N3          4.6494    4.5578    3.9801 N.ar      1 <0>        -0.4795
     18 C13         5.6667    3.9932    3.3595 C.ar      1 <0>         0.1002
     19 C14         5.5410    3.5464    2.0576 C.ar      1 <0>        -0.1577
     20 C15         5.9701    0.7393   -0.0516 C.3       1 <0>         0.2044
     21 N4          6.4452    0.7471   -1.4374 N.am      1 <0>        -0.7248
     22 C16         7.7679    0.7489   -1.6963 C.2       1 <0>         0.5227
     23 O3          8.5648    0.7440   -0.7820 O.2       1 <0>        -0.5366
     24 C17         8.2566    0.7569   -3.1218 C.3       1 <0>        -0.1121
     25 C18         7.8024   -0.5286   -3.8434 C.3       1 <0>        -0.1176
     26 C19         8.9950   -0.8894   -4.7636 C.3       1 <0>        -0.1238
     27 C20        10.2220   -0.5277   -3.8903 C.3       1 <0>        -0.1248
     28 C21         9.7951    0.7575   -3.1516 C.3       1 <0>        -0.1187
     29 H1         -0.9614    1.9218    0.0261 H         1 <0>         0.1369
     30 H2          1.1249    3.1851    0.0080 H         1 <0>         0.1133
     31 H3          1.2325   -1.7675   -0.0191 H         1 <0>         0.1361
     32 H4          5.1092    3.3024   -0.5434 H         1 <0>         0.1014
     33 H5          3.4239    3.8748   -0.5233 H         1 <0>         0.1042
     34 H6          2.3257    4.4464    1.6077 H         1 <0>         0.1378
     35 H7          2.6719    5.1902    3.9297 H         1 <0>         0.1594
     36 H8          6.6078    3.8748    3.8759 H         1 <0>         0.1584
     37 H9          6.3764    3.0803    1.5564 H         1 <0>         0.1352
     38 H10         6.3381    1.6265    0.4637 H         1 <0>         0.0842
     39 H11         6.3386   -0.1534    0.4538 H         1 <0>         0.1026
     40 H12         5.8079    0.7510   -2.1686 H         1 <0>         0.4057
     41 H13         7.8728    1.6340   -3.6429 H         1 <0>         0.0984
     42 H14         7.6211   -1.3266   -3.1233 H         1 <0>         0.0733
     43 H15         6.9076   -0.3377   -4.4359 H         1 <0>         0.0742
     44 H16         8.9907   -1.9529   -5.0024 H         1 <0>         0.0696
     45 H17         8.9772   -0.2882   -5.6726 H         1 <0>         0.0690
     46 H18        10.4316   -1.3256   -3.1777 H         1 <0>         0.0669
     47 H19        11.0931   -0.3361   -4.5169 H         1 <0>         0.0664
     48 H20        10.1578    1.6344   -3.6879 H         1 <0>         0.0669
     49 H21        10.1882    0.7520   -2.1350 H         1 <0>         0.0901
@<TRIPOS>BOND
     1    1    6 ar
     2    1    2 ar
     3    1   29 1
     4    2    3 ar
     5    2   30 1
     6    3   12 1
     7    3    4 ar
     8    4    5 ar
     9    4   10 1
    10    5    6 ar
    11    5   31 1
    12    6    7 1
    13    7    8 2
    14    7    9 1
    15   10   11 2
    16   11   12 1
    17   11   20 1
    18   12   13 1
    19   13   14 1
    20   13   32 1
    21   13   33 1
    22   14   19 ar
    23   14   15 ar
    24   15   16 ar
    25   15   34 1
    26   16   17 ar
    27   16   35 1
    28   17   18 ar
    29   18   19 ar
    30   18   36 1
    31   19   37 1
    32   20   21 1
    33   20   38 1
    34   20   39 1
    35   21   22 am
    36   21   40 1
    37   22   23 2
    38   22   24 1
    39   24   28 1
    40   24   25 1
    41   24   41 1
    42   25   26 1
    43   25   42 1
    44   25   43 1
    45   26   27 1
    46   26   44 1
    47   26   45 1
    48   27   28 1
    49   27   46 1
    50   27   47 1
    51   28   48 1
    52   28   49 1
@<TRIPOS>MOLECULE
ZINC61379122
   42    44     0     0     0
SMALL
USER_CHARGES

@<TRIPOS>ATOM
      1 C1         -0.1510   -0.0933   -0.8118 C.3       1 <0>        -0.1603
      2 C2         -0.1180   -1.5008   -0.2127 C.3       1 <0>         0.1789
      3 C3         -1.5265   -1.9683    0.0494 C.ar      1 <0>        -0.0572
      4 C4         -2.1974   -1.5335    1.1787 C.ar      1 <0>        -0.1158
      5 C5         -3.4869   -1.9575    1.4248 C.ar      1 <0>        -0.0635
      6 C6         -4.1150   -2.8271    0.5309 C.ar      1 <0>        -0.0319
      7 C7         -3.4321   -3.2616   -0.6069 C.ar      1 <0>        -0.0645
      8 C8         -2.1448   -2.8259   -0.8432 C.ar      1 <0>        -0.1070
      9 C9         -5.4532   -3.2717    0.7802 C.1       1 <0>         0.2541
     10 N1         -6.5147   -3.6244    0.9780 N.1       1 <0>        -0.4170
     11 N2          0.6313   -1.4783    1.0460 N.am      1 <0>        -0.7272
     12 C10         1.9741   -1.5923    1.0329 C.2       1 <0>         0.5693
     13 O1          2.5635   -1.7138   -0.0232 O.2       1 <0>        -0.5290
     14 C11         2.7304   -1.5696    2.3033 C.ar      1 <0>        -0.1333
     15 C12         2.0551   -1.4360    3.5182 C.ar      1 <0>        -0.1037
     16 C13         2.7630   -1.4152    4.7025 C.ar      1 <0>        -0.1181
     17 C14         4.1409   -1.5261    4.6917 C.ar      1 <0>        -0.0827
     18 C15         4.8226   -1.6595    3.4877 C.ar      1 <0>         0.1809
     19 C16         4.1197   -1.6874    2.2924 C.ar      1 <0>        -0.0457
     20 N3          6.2170   -1.7706    3.4819 N.am      1 <0>        -0.3650
     21 C17         6.9490   -0.9999    2.6526 C.2       1 <0>         0.4896
     22 O2          6.3991   -0.2051    1.9064 O.2       1 <0>        -0.5774
     23 C18         8.3530   -1.1177    2.6535 C.2       1 <0>        -0.2023
     24 C19         8.9458   -2.0093    3.4932 C.2       1 <0>        -0.0808
     25 C20         8.1524   -2.7986    4.3461 C.2       1 <0>         0.3619
     26 O3          8.7436   -3.6882    5.1847 O.3       1 <0>        -0.7099
     27 N4          6.8481   -2.6774    4.3413 N.2       1 <0>        -0.3846
     28 H1          0.8677    0.2448   -1.0014 H         1 <0>         0.0710
     29 H2         -0.7085   -0.1100   -1.7483 H         1 <0>         0.0684
     30 H3         -0.6358    0.5879   -0.1125 H         1 <0>         0.0607
     31 H4          0.3667   -2.1820   -0.9120 H         1 <0>         0.1030
     32 H5         -1.7104   -0.8609    1.8692 H         1 <0>         0.1340
     33 H6         -4.0092   -1.6179    2.3069 H         1 <0>         0.1355
     34 H7         -3.9121   -3.9342   -1.3024 H         1 <0>         0.1353
     35 H8         -1.6169   -3.1579   -1.7250 H         1 <0>         0.1383
     36 H9          0.1609   -1.3814    1.8887 H         1 <0>         0.3993
     37 H10         0.9787   -1.3487    3.5309 H         1 <0>         0.1211
     38 H11         2.2388   -1.3114    5.6410 H         1 <0>         0.1309
     39 H12         4.6895   -1.5088    5.6218 H         1 <0>         0.1350
     40 H13         4.6470   -1.7955    1.3561 H         1 <0>         0.1389
     41 H14         8.9523   -0.5071    1.9944 H         1 <0>         0.1429
     42 H15        10.0209   -2.1110    3.5048 H         1 <0>         0.1281
@<TRIPOS>BOND
     1    1    2 1
     2    1   28 1
     3    1   29 1
     4    1   30 1
     5    2    3 1
     6    2   11 1
     7    2   31 1
     8    3    8 ar
     9    3    4 ar
    10    4    5 ar
    11    4   32 1
    12    5    6 ar
    13    5   33 1
    14    6    7 ar
    15    6    9 1
    16    7    8 ar
    17    7   34 1
    18    8   35 1
    19    9   10 3
    20   11   12 am
    21   11   36 1
    22   12   13 2
    23   12   14 1
    24   14   19 ar
    25   14   15 ar
    26   15   16 ar
    27   15   37 1
    28   16   17 ar
    29   16   38 1
    30   17   18 ar
    31   17   39 1
    32   18   19 ar
    33   18   20 1
    34   19   40 1
    35   20   27 1
    36   20   21 am
    37   21   23 1
    38   21   22 2
    39   23   24 2
    40   23   41 1
    41   24   25 1
    42   24   42 1
    43   25   27 2
    44   25   26 1
@<TRIPOS>MOLECULE
ZINC65873198
   43    45     0     0     0
SMALL
USER_CHARGES

@<TRIPOS>ATOM
      1 C1          0.0046    1.5262    0.0222 C.3       1 <0>        -0.1426
      2 C2          0.0223   -0.0037    0.0124 C.3       1 <0>        -0.5978
      3 S1          0.8593   -0.5891   -1.4868 S.o2      1 <0>         2.5201
      4 O1          0.0819   -0.2774   -2.6347 O.2       1 <0>        -1.0272
      5 O2          2.2407   -0.2601   -1.4363 O.2       1 <0>        -1.0271
      6 N1          0.8142   -2.2411   -1.3818 N.2       1 <0>        -1.0427
      7 C3          1.3782   -3.0164   -2.3866 C.ar      1 <0>         0.3366
      8 C4          1.9863   -2.4097   -3.4788 C.ar      1 <0>        -0.2575
      9 C5          2.5459   -3.1820   -4.4757 C.ar      1 <0>        -0.0422
     10 C6          2.5073   -4.5654   -4.3970 C.ar      1 <0>        -0.2368
     11 C7          1.9093   -5.1850   -3.3219 C.ar      1 <0>        -0.0403
     12 C8          1.3422   -4.4169   -2.3014 C.ar      1 <0>        -0.2306
     13 C9          0.7056   -5.0735   -1.1453 C.2       1 <0>         0.5639
     14 O3          0.2095   -4.4014   -0.2615 O.2       1 <0>        -0.4785
     15 N2          0.6733   -6.4186   -1.0678 N.am      1 <0>        -0.6873
     16 C10         0.1564   -7.0414    0.0736 C.ar      1 <0>         0.1961
     17 C11         0.7163   -8.2276    0.5314 C.ar      1 <0>        -0.1420
     18 C12         0.2071   -8.8427    1.6573 C.ar      1 <0>        -0.0707
     19 C13        -0.8650   -8.2767    2.3334 C.ar      1 <0>         0.0919
     20 C14        -1.4264   -7.0894    1.8763 C.ar      1 <0>         0.1027
     21 C15        -0.9125   -6.4707    0.7520 C.ar      1 <0>        -0.1356
     22 F1         -2.4701   -6.5382    2.5336 F         1 <0>        -0.1311
     23 N3         -1.3826   -8.9027    3.4777 N.pl3     1 <0>        -0.3130
     24 C16        -2.4214   -8.4643    4.2233 C.2       1 <0>         0.0480
     25 C17        -2.6049   -9.3466    5.2333 C.2       1 <0>        -0.2717
     26 C18        -1.6473  -10.3576    5.1013 C.2       1 <0>         0.0508
     27 N4         -0.9181  -10.0959    4.0460 N.2       1 <0>        -0.2949
     28 H1          1.0278    1.9015    0.0073 H         1 <0>         0.0640
     29 H2         -0.5284    1.8890   -0.8566 H         1 <0>         0.0641
     30 H3         -0.4983    1.8779    0.9230 H         1 <0>         0.0689
     31 H4          0.5553   -0.3666    0.8912 H         1 <0>         0.1207
     32 H5         -1.0009   -0.3790    0.0273 H         1 <0>         0.1208
     33 H6          2.0206   -1.3324   -3.5476 H         1 <0>         0.1079
     34 H7          3.0168   -2.7057   -5.3229 H         1 <0>         0.1063
     35 H8          2.9480   -5.1605   -5.1831 H         1 <0>         0.1072
     36 H9          1.8821   -6.2632   -3.2658 H         1 <0>         0.1057
     37 H10         1.0084   -6.9550   -1.8032 H         1 <0>         0.4079
     38 H11         1.5502   -8.6689    0.0058 H         1 <0>         0.1416
     39 H12         0.6428   -9.7650    2.0122 H         1 <0>         0.1475
     40 H13        -1.3450   -5.5463    0.3988 H         1 <0>         0.1674
     41 H14        -3.0007   -7.5703    4.0454 H         1 <0>         0.1893
     42 H15        -3.3576   -9.2813    6.0051 H         1 <0>         0.1521
     43 H16        -1.5325  -11.2100    5.7545 H         1 <0>         0.1880
@<TRIPOS>BOND
     1    1    2 1
     2    1   28 1
     3    1   29 1
     4    1   30 1
     5    2    3 1
     6    2   31 1
     7    2   32 1
     8    3    4 2
     9    3    5 2
    10    3    6 1
    11    6    7 1
    12    7   12 ar
    13    7    8 ar
    14    8    9 ar
    15    8   33 1
    16    9   10 ar
    17    9   34 1
    18   10   11 ar
    19   10   35 1
    20   11   12 ar
    21   11   36 1
    22   12   13 1
    23   13   14 2
    24   13   15 am
    25   15   16 1
    26   15   37 1
    27   16   21 ar
    28   16   17 ar
    29   17   18 ar
    30   17   38 1
    31   18   19 ar
    32   18   39 1
    33   19   20 ar
    34   19   23 1
    35   20   21 ar
    36   20   22 1
    37   21   40 1
    38   23   27 1
    39   23   24 1
    40   24   25 2
    41   24   41 1
    42   25   26 1
    43   25   42 1
    44   26   27 2
    45   26   43 1
@<TRIPOS>MOLECULE
ZINC19625437
   36    38     0     0     0
SMALL
USER_CHARGES
N-[2-(1,3-benzodioxol-5-yloxy)-5-(trifluoromethyl)phenyl]methanesulfonamide
@<TRIPOS>ATOM
      1 C1          0.9164   -5.8124   -2.3766 C.3       1 <0>        -0.6978
      2 S1          1.2957   -6.2446   -0.6562 S.o2      1 <0>         2.5255
      3 O1          2.6530   -6.6494   -0.5410 O.2       1 <0>        -0.9916
      4 O2          0.2533   -7.0414   -0.1105 O.2       1 <0>        -1.0338
      5 N1          1.2102   -4.8126    0.1712 N.2       1 <0>        -1.0466
      6 C2          0.0136   -4.0874    0.1928 C.ar      1 <0>         0.2298
      7 C3         -1.2030   -4.7534    0.2214 C.ar      1 <0>        -0.1760
      8 C4         -2.3837   -4.0349    0.2364 C.ar      1 <0>        -0.1716
      9 C5         -2.3559   -2.6525    0.2298 C.ar      1 <0>        -0.1215
     10 C6         -1.1471   -1.9816    0.2071 C.ar      1 <0>        -0.1700
     11 C7          0.0409   -2.6942    0.1910 C.ar      1 <0>         0.0911
     12 O3          1.2305   -2.0358    0.1677 O.3       1 <0>        -0.2207
     13 C8          1.2132   -0.6820    0.2911 C.ar      1 <0>         0.1159
     14 C9          1.5836    0.1167   -0.7810 C.ar      1 <0>        -0.1174
     15 C10         1.5662    1.4932   -0.6579 C.ar      1 <0>        -0.0822
     16 C11         1.1789    2.0791    0.5362 C.ar      1 <0>         0.0149
     17 C12         0.8067    1.2795    1.6139 C.ar      1 <0>         0.0486
     18 C13         0.8248   -0.0999    1.4885 C.ar      1 <0>        -0.1260
     19 O4          0.4719    2.0876    2.6619 O.3       1 <0>        -0.3092
     20 C14         1.0328    3.3761    2.3487 C.3       1 <0>         0.2094
     21 O5          1.0770    3.3892    0.9095 O.3       1 <0>        -0.3061
     22 C15        -3.7045   -4.7599    0.2607 C.3       1 <0>         0.5091
     23 F1         -4.7479   -3.8280    0.2731 F         1 <0>        -0.1861
     24 F2         -3.8141   -5.5676   -0.8764 F         1 <0>        -0.1817
     25 F3         -3.7778   -5.5573    1.4079 F         1 <0>        -0.1797
     26 H1         -0.1358   -5.5010   -2.4530 H         1 <0>         0.1059
     27 H2          1.0875   -6.6875   -3.0208 H         1 <0>         0.0952
     28 H3          1.5675   -4.9866   -2.6993 H         1 <0>         0.1109
     29 H4         -1.2277   -5.8331    0.2266 H         1 <0>         0.1644
     30 H5         -3.2809   -2.0952    0.2420 H         1 <0>         0.1242
     31 H6         -1.1290   -0.9018    0.2016 H         1 <0>         0.1244
     32 H7          1.8862   -0.3376   -1.7129 H         1 <0>         0.1487
     33 H8          1.8593    2.1129   -1.4924 H         1 <0>         0.1410
     34 H9          0.5369   -0.7220    2.3231 H         1 <0>         0.1440
     35 H10         0.3834    4.1667    2.7528 H         1 <0>         0.1312
     36 H11         2.0339    3.4590    2.7970 H         1 <0>         0.0837
@<TRIPOS>BOND
     1    1    2 1
     2    1   26 1
     3    1   27 1
     4    1   28 1
     5    2    3 2
     6    2    4 2
     7    2    5 1
     8    5    6 1
     9    6   11 ar
    10    6    7 ar
    11    7    8 ar
    12    7   29 1
    13    8    9 ar
    14    8   22 1
    15    9   10 ar
    16    9   30 1
    17   10   11 ar
    18   10   31 1
    19   11   12 1
    20   12   13 1
    21   13   18 ar
    22   13   14 ar
    23   14   15 ar
    24   14   32 1
    25   15   16 ar
    26   15   33 1
    27   16   21 1
    28   16   17 ar
    29   17   18 ar
    30   17   19 1
    31   18   34 1
    32   19   20 1
    33   20   21 1
    34   20   35 1
    35   20   36 1
    36   22   23 1
    37   22   24 1
    38   22   25 1
@<TRIPOS>MOLECULE
ZINC40150897
   39    41     0     0     0
SMALL
USER_CHARGES

@<TRIPOS>ATOM
      1 C1         -0.0187    1.5258    0.0104 C.3       1 <0>        -0.1466
      2 C2          0.0021   -0.0041    0.0020 C.3       1 <0>        -0.1227
      3 C3         -1.4333   -0.5336    0.0129 C.3       1 <0>         0.0579
      4 O1         -1.4139   -1.9625    0.0050 O.3       1 <0>        -0.2915
      5 C4         -2.6173   -2.5964    0.0131 C.ar      1 <0>         0.0681
      6 C5         -3.7900   -1.8596    0.0225 C.ar      1 <0>        -0.1722
      7 C6         -5.0127   -2.5054    0.0313 C.ar      1 <0>        -0.1902
      8 C7         -5.0692   -3.8868    0.0301 C.ar      1 <0>        -0.0947
      9 C8         -3.9035   -4.6294    0.0203 C.ar      1 <0>        -0.2441
     10 C9         -2.6732   -3.9884    0.0062 C.ar      1 <0>         0.2618
     11 N1         -1.4914   -4.7382   -0.0097 N.2       1 <0>        -1.0669
     12 S1         -1.5606   -6.3927   -0.0179 S.o2      1 <0>         2.6196
     13 O2         -2.1154   -6.7822    1.2310 O.2       1 <0>        -1.0310
     14 O3         -2.1403   -6.7688   -1.2596 O.2       1 <0>        -1.0000
     15 C10         0.0994   -6.9834   -0.0376 C.2       1 <0>        -0.5523
     16 C11         0.8468   -7.2410   -1.1346 C.2       1 <0>         0.2008
     17 N2          2.0481   -7.6711   -0.7403 N.2       1 <0>        -0.4960
     18 C12         2.0885   -7.6953    0.5848 C.2       1 <0>         0.2555
     19 N3          0.8760   -7.2618    1.0548 N.pl3     1 <0>        -0.3063
     20 C13         0.6434   -7.1819    2.3971 C.2       1 <0>         0.0824
     21 C14         1.6027   -7.5247    3.2825 C.2       1 <0>        -0.1552
     22 C15         2.8566   -7.9691    2.8319 C.2       1 <0>        -0.0808
     23 C16         3.0988   -8.0613    1.4963 C.2       1 <0>        -0.0965
     24 Cl1         0.3308   -7.0460   -2.7807 Cl        1 <0>         0.0315
     25 H1          1.0039    1.9031    0.0027 H         1 <0>         0.0579
     26 H2         -0.5459    1.8868   -0.8726 H         1 <0>         0.0544
     27 H3         -0.5289    1.8773    0.9072 H         1 <0>         0.0540
     28 H4          0.5123   -0.3556   -0.8948 H         1 <0>         0.0708
     29 H5          0.5293   -0.3651    0.8851 H         1 <0>         0.0697
     30 H6         -1.9435   -0.1821    0.9097 H         1 <0>         0.0484
     31 H7         -1.9605   -0.1726   -0.8702 H         1 <0>         0.0490
     32 H8         -3.7495   -0.7803    0.0234 H         1 <0>         0.1106
     33 H9         -5.9261   -1.9291    0.0393 H         1 <0>         0.1040
     34 H10        -6.0264   -4.3868    0.0373 H         1 <0>         0.1040
     35 H11        -3.9504   -5.7084    0.0198 H         1 <0>         0.1026
     36 H12        -0.3170   -6.8408    2.7543 H         1 <0>         0.1846
     37 H13         1.4054   -7.4567    4.3421 H         1 <0>         0.1578
     38 H14         3.6228   -8.2422    3.5423 H         1 <0>         0.1471
     39 H15         4.0596   -8.4006    1.1384 H         1 <0>         0.1545
@<TRIPOS>BOND
     1    1    2 1
     2    1   25 1
     3    1   26 1
     4    1   27 1
     5    2    3 1
     6    2   28 1
     7    2   29 1
     8    3    4 1
     9    3   30 1
    10    3   31 1
    11    4    5 1
    12    5   10 ar
    13    5    6 ar
    14    6    7 ar
    15    6   32 1
    16    7    8 ar
    17    7   33 1
    18    8    9 ar
    19    8   34 1
    20    9   10 ar
    21    9   35 1
    22   10   11 1
    23   11   12 1
    24   12   13 2
    25   12   14 2
    26   12   15 1
    27   15   19 1
    28   15   16 2
    29   16   17 1
    30   16   24 1
    31   17   18 2
    32   18   23 1
    33   18   19 1
    34   19   20 1
    35   20   21 2
    36   20   36 1
    37   21   22 1
    38   21   37 1
    39   22   23 2
    40   22   38 1
    41   23   39 1
@<TRIPOS>MOLECULE
ZINC57477041
   42    43     0     0     0
SMALL
USER_CHARGES

@<TRIPOS>ATOM
      1 C1          0.3618    0.2473   -0.9959 C.3       1 <0>        -0.1430
      2 C2          0.3122   -1.2536   -0.7034 C.3       1 <0>        -0.6021
      3 S1          1.0549   -1.5783    0.9195 S.o2      1 <0>         2.5284
      4 O1          2.4503   -1.3125    0.8811 O.2       1 <0>        -1.0227
      5 O2          0.2413   -1.0315    1.9483 O.2       1 <0>        -1.0222
      6 N1          0.9424   -3.2184    1.1185 N.2       1 <0>        -1.0883
      7 C3          1.4293   -3.8155    2.2836 C.ar      1 <0>         0.3315
      8 C4          2.0031   -3.0342    3.2789 C.ar      1 <0>        -0.2675
      9 C5          2.4830   -3.6277    4.4296 C.ar      1 <0>         0.0094
     10 C6          2.3934   -4.9983    4.5918 C.ar      1 <0>        -0.7841
     11 C7          1.8235   -5.7788    3.6030 C.ar      1 <0>         0.0541
     12 C8          1.3358   -5.1909    2.4522 C.ar      1 <0>        -0.1944
     13 C9          1.7289   -7.2720    3.7837 C.3       1 <0>        -0.1689
     14 S2          3.0076   -5.7515    6.0615 S.o2      1 <0>         2.6839
     15 O3          1.9019   -5.8797    6.9448 O.2       1 <0>        -0.9467
     16 O4          3.7880   -6.8659    5.6511 O.2       1 <0>        -0.9680
     17 O5          3.9675   -4.7623    6.7068 O.3       1 <0>        -0.6681
     18 C10         5.1824   -4.6957    6.1014 C.ar      1 <0>         0.0759
     19 C11         6.1709   -5.6144    6.4241 C.ar      1 <0>        -0.1020
     20 C12         7.4047   -5.5449    5.8070 C.ar      1 <0>        -0.1033
     21 C13         7.6551   -4.5608    4.8683 C.ar      1 <0>        -0.1074
     22 C14         6.6721   -3.6441    4.5454 C.ar      1 <0>        -0.0671
     23 C15         5.4344   -3.7128    5.1556 C.ar      1 <0>        -0.1163
     24 C16         6.9486   -2.5727    3.5223 C.3       1 <0>        -0.1185
     25 H1          1.3987    0.5832   -0.9972 H         1 <0>         0.0653
     26 H2         -0.0845    0.4424   -1.9710 H         1 <0>         0.0700
     27 H3         -0.1936    0.7857   -0.2279 H         1 <0>         0.0653
     28 H4         -0.7248   -1.5895   -0.7021 H         1 <0>         0.1208
     29 H5          0.8675   -1.7920   -1.4714 H         1 <0>         0.1208
     30 H6          2.0740   -1.9640    3.1526 H         1 <0>         0.1100
     31 H7          2.9291   -3.0210    5.2037 H         1 <0>         0.1124
     32 H8          0.8864   -5.8006    1.6823 H         1 <0>         0.1217
     33 H9          0.8406   -7.5117    4.3681 H         1 <0>         0.0744
     34 H10         1.6624   -7.7526    2.8077 H         1 <0>         0.0776
     35 H11         2.6154   -7.6316    4.3061 H         1 <0>         0.0988
     36 H12         5.9759   -6.3829    7.1575 H         1 <0>         0.1370
     37 H13         8.1746   -6.2595    6.0581 H         1 <0>         0.1355
     38 H14         8.6205   -4.5082    4.3869 H         1 <0>         0.1310
     39 H15         4.6652   -2.9992    4.8997 H         1 <0>         0.1454
     40 H16         6.6782   -2.9379    2.5315 H         1 <0>         0.0802
     41 H17         6.3590   -1.6862    3.7561 H         1 <0>         0.0721
     42 H18         8.0085   -2.3190    3.5392 H         1 <0>         0.0692
@<TRIPOS>BOND
     1    1    2 1
     2    1   25 1
     3    1   26 1
     4    1   27 1
     5    2    3 1
     6    2   28 1
     7    2   29 1
     8    3    4 2
     9    3    5 2
    10    3    6 1
    11    6    7 1
    12    7   12 ar
    13    7    8 ar
    14    8    9 ar
    15    8   30 1
    16    9   10 ar
    17    9   31 1
    18   10   11 ar
    19   10   14 1
    20   11   12 ar
    21   11   13 1
    22   12   32 1
    23   13   33 1
    24   13   34 1
    25   13   35 1
    26   14   15 2
    27   14   16 2
    28   14   17 1
    29   17   18 1
    30   18   23 ar
    31   18   19 ar
    32   19   20 ar
    33   19   36 1
    34   20   21 ar
    35   20   37 1
    36   21   22 ar
    37   21   38 1
    38   22   23 ar
    39   22   24 1
    40   23   39 1
    41   24   40 1
    42   24   41 1
    43   24   42 1
@<TRIPOS>MOLECULE
ZINC63911143
   29    30     0     0     0
SMALL
USER_CHARGES

@<TRIPOS>ATOM
      1 C1         -0.0168    1.3845    0.0097 C.ar      1 <0>        -0.1636
      2 C2          1.1694    2.0912    0.0021 C.ar      1 <0>        -0.0421
      3 C3          2.3817    1.4130   -0.0130 C.ar      1 <0>        -0.1937
      4 C4          2.4003    0.0240   -0.0206 C.ar      1 <0>        -0.0558
      5 C5          1.2139   -0.6822   -0.0131 C.ar      1 <0>        -0.2456
      6 C6          0.0021   -0.0041    0.0020 C.ar      1 <0>         0.2859
      7 N1         -1.2008   -0.7204    0.0096 N.2       1 <0>        -1.0769
      8 S1         -1.1785   -2.3762    0.0005 S.o2      1 <0>         2.6166
      9 O1         -0.6341   -2.7682   -1.2522 O.2       1 <0>        -1.0036
     10 O2         -0.6104   -2.7816    1.2383 O.2       1 <0>        -1.0072
     11 C7         -2.8545   -2.9199    0.0135 C.2       1 <0>        -0.6230
     12 C8         -3.6747   -3.1829   -1.0331 C.2       1 <0>        -0.0654
     13 C9         -4.9675   -3.6029   -0.7825 C.2       1 <0>        -0.0684
     14 C10        -5.3769   -3.7395    0.5025 C.2       1 <0>        -0.1698
     15 S2         -3.9105   -3.2748    1.4085 S.3       1 <0>         0.3068
     16 N2         -6.6959   -4.1681    1.0201 N.pl3     1 <0>         0.0807
     17 O3         -7.5838   -4.4531    0.2506 O.2       1 <0>        -0.1403
     18 O4         -6.8853   -4.2331    2.2124 O.3       1 <0>        -0.1439
     19 S3          3.8956    2.3146   -0.0232 S.3       1 <0>        -0.1325
     20 C11         5.1731    1.0269   -0.0421 C.3       1 <0>         0.2758
     21 F1          5.0444    0.2256    1.0975 F         1 <0>        -0.1843
     22 F2          5.0222    0.2370   -1.1869 F         1 <0>        -0.1844
     23 H1         -0.9592    1.9116    0.0260 H         1 <0>         0.1241
     24 H2          1.1547    3.1711    0.0077 H         1 <0>         0.1163
     25 H3          3.3426   -0.5034   -0.0328 H         1 <0>         0.1097
     26 H4          1.2282   -1.7621   -0.0190 H         1 <0>         0.1035
     27 H5         -3.3235   -3.0656   -2.0476 H         1 <0>         0.1693
     28 H6         -5.6415   -3.8188   -1.5983 H         1 <0>         0.1642
     29 H7          6.1585    1.4927   -0.0493 H         1 <0>         0.1479
@<TRIPOS>BOND
     1    1    6 ar
     2    1    2 ar
     3    1   23 1
     4    2    3 ar
     5    2   24 1
     6    3    4 ar
     7    3   19 1
     8    4    5 ar
     9    4   25 1
    10    5    6 ar
    11    5   26 1
    12    6    7 1
    13    7    8 1
    14    8    9 2
    15    8   10 2
    16    8   11 1
    17   11   15 1
    18   11   12 2
    19   12   13 1
    20   12   27 1
    21   13   14 2
    22   13   28 1
    23   14   15 1
    24   14   16 1
    25   16   17 2
    26   16   18 1
    27   19   20 1
    28   20   21 1
    29   20   22 1
    30   20   29 1
@<TRIPOS>MOLECULE
ZINC65137765
   48    50     0     0     0
SMALL
USER_CHARGES

@<TRIPOS>ATOM
      1 C1          1.6556    1.5644   -6.2927 C.3       1 <0>        -0.1494
      2 C2          1.6464    0.0345   -6.2911 C.3       1 <0>         0.0594
      3 O1          1.7203   -0.4409   -4.9455 O.3       1 <0>        -0.3286
      4 C3          1.7224   -1.7890   -4.7662 C.ar      1 <0>         0.0142
      5 C4          1.6603   -2.6344   -5.8640 C.ar      1 <0>        -0.1569
      6 C5          1.6623   -4.0035   -5.6829 C.ar      1 <0>        -0.1515
      7 C6          1.7265   -4.5338   -4.4011 C.ar      1 <0>         0.2535
      8 C7          1.7887   -3.6867   -3.3025 C.ar      1 <0>        -0.2303
      9 C8          1.7923   -2.3178   -3.4858 C.ar      1 <0>        -0.0897
     10 N1          1.7282   -5.9209   -4.2166 N.2       1 <0>        -1.0951
     11 S1          1.8048   -6.5528   -2.6878 S.o2      1 <0>         2.6095
     12 O2          3.0812   -6.2058   -2.1684 O.2       1 <0>        -1.0275
     13 O3          0.5940   -6.1913   -2.0378 O.2       1 <0>        -1.0276
     14 C9          1.7862   -8.3074   -2.8477 C.2       1 <0>        -0.6590
     15 C10         2.9139   -8.9885   -2.7877 C.2       1 <0>         0.0359
     16 S2          2.4591  -10.7033   -2.9725 S.3       1 <0>        -0.1900
     17 C11         0.6426  -10.5344   -2.7147 C.3       1 <0>        -0.0078
     18 H1          0.0805  -11.1576   -3.4102 H         1 <0>         0.1333
     19 C12         0.4916   -9.0280   -3.0455 C.3       1 <0>        -0.0546
     20 C13         0.2520  -10.8280   -1.2648 C.3       1 <0>        -0.0271
     21 H2         -0.8294  -10.7732   -1.1397 H         1 <0>         0.1530
     22 C14         0.7744  -12.1867   -0.8325 C.2       1 <0>        -0.1222
     23 C15         1.6035  -11.9062    0.1753 C.2       1 <0>        -0.0396
     24 N2          1.6485  -10.5750    0.4038 N.2       1 <0>        -0.1594
     25 N3          0.9306   -9.8998   -0.3443 N.2       1 <0>        -0.1398
     26 C16         2.3837  -12.9347    0.9530 C.3       1 <0>        -0.0810
     27 C17         0.4353  -13.5378   -1.4073 C.3       1 <0>        -0.0891
     28 C18         4.3021   -8.4322   -2.6018 C.3       1 <0>        -0.1016
     29 H3          0.7986    1.9335   -5.7293 H         1 <0>         0.0617
     30 H4          2.5756    1.9227   -5.8308 H         1 <0>         0.0617
     31 H5          1.5991    1.9270   -7.3190 H         1 <0>         0.0696
     32 H6          0.7263   -0.3238   -6.7529 H         1 <0>         0.0521
     33 H7          2.5034   -0.3346   -6.8544 H         1 <0>         0.0522
     34 H8          1.6099   -2.2218   -6.8609 H         1 <0>         0.1101
     35 H9          1.6135   -4.6616   -6.5378 H         1 <0>         0.1144
     36 H10         1.8387   -4.0983   -2.3053 H         1 <0>         0.1036
     37 H11         1.8455   -1.6589   -2.6318 H         1 <0>         0.1108
     38 H12        -0.2660   -8.5901   -2.3956 H         1 <0>         0.1026
     39 H13         0.1766   -8.9219   -4.0836 H         1 <0>         0.1002
     40 H14         3.3504  -13.0948    0.4755 H         1 <0>         0.0770
     41 H15         2.5363  -12.5805    1.9724 H         1 <0>         0.0750
     42 H16         1.8287  -13.8726    0.9734 H         1 <0>         0.0714
     43 H17         1.1319  -13.7759   -2.2111 H         1 <0>         0.0829
     44 H18         0.5098  -14.2942   -0.6260 H         1 <0>         0.0775
     45 H19        -0.5812  -13.5206   -1.8006 H         1 <0>         0.0736
     46 H20         4.4974   -8.2907   -1.5388 H         1 <0>         0.0926
     47 H21         5.0311   -9.1288   -3.0156 H         1 <0>         0.0663
     48 H22         4.3817   -7.4746   -3.1164 H         1 <0>         0.1135
@<TRIPOS>BOND
     1    1    2 1
     2    1   29 1
     3    1   30 1
     4    1   31 1
     5    2    3 1
     6    2   32 1
     7    2   33 1
     8    3    4 1
     9    4    9 ar
    10    4    5 ar
    11    5    6 ar
    12    5   34 1
    13    6    7 ar
    14    6   35 1
    15    7    8 ar
    16    7   10 1
    17    8    9 ar
    18    8   36 1
    19    9   37 1
    20   10   11 1
    21   11   12 2
    22   11   13 2
    23   11   14 1
    24   14   19 1
    25   14   15 2
    26   15   16 1
    27   15   28 1
    28   16   17 1
    29   17   18 1
    30   17   19 1
    31   17   20 1
    32   19   38 1
    33   19   39 1
    34   20   21 1
    35   20   25 1
    36   20   22 1
    37   22   23 2
    38   22   27 1
    39   23   24 1
    40   23   26 1
    41   24   25 2
    42   26   40 1
    43   26   41 1
    44   26   42 1
    45   27   43 1
    46   27   44 1
    47   27   45 1
    48   28   46 1
    49   28   47 1
    50   28   48 1
@<TRIPOS>MOLECULE
ZINC11919732
   30    32     0     0     0
SMALL
USER_CHARGES
2-(p-tolyl)imidazo[1,2-a]pyridine-8-carboxylic acid
@<TRIPOS>ATOM
      1 C1         10.2324    0.4899   -0.0943 C.3       1 <0>        -0.1115
      2 C2          8.7257    0.5131   -0.0801 C.ar      1 <0>        -0.0938
      3 C3          8.0552    1.7229   -0.0675 C.ar      1 <0>        -0.1212
      4 C4          6.6754    1.7501   -0.0540 C.ar      1 <0>        -0.0835
      5 C5          5.9576    0.5556   -0.0531 C.ar      1 <0>        -0.0021
      6 C6          6.6383   -0.6603   -0.0605 C.ar      1 <0>        -0.1062
      7 C7          8.0182   -0.6756   -0.0793 C.ar      1 <0>        -0.1243
      8 C8          4.4741    0.5784   -0.0381 C.2       1 <0>         0.0754
      9 C9          3.6599   -0.5120   -0.0357 C.2       1 <0>        -0.0989
     10 N1          2.3717   -0.0509   -0.0209 N.pl3     1 <0>        -0.3665
     11 C10         1.1678   -0.6874   -0.0123 C.2       1 <0>         0.0305
     12 C11         0.0021   -0.0041    0.0020 C.2       1 <0>        -0.1331
     13 C12        -0.0169    1.3927    0.0097 C.2       1 <0>        -0.0888
     14 C13         1.1863    2.0894    0.0020 C.2       1 <0>        -0.0576
     15 C14         2.4347    1.3200   -0.0145 C.2       1 <0>         0.2553
     16 N2          3.7031    1.6803   -0.0250 N.2       1 <0>        -0.4448
     17 C15         1.2065    3.5597    0.0097 C.2       1 <0>         0.4923
     18 O1          2.2675    4.1530    0.0027 O.co2     1 <0>        -0.5948
     19 H1         10.6053    0.4789    0.9299 H         1 <0>         0.0674
     20 H2         10.5771   -0.4028   -0.6161 H         1 <0>         0.0629
     21 H3         10.6046    1.3769   -0.6070 H         1 <0>         0.0644
     22 H4          8.6125    2.6480   -0.0685 H         1 <0>         0.1224
     23 H5          6.1530    2.6952   -0.0438 H         1 <0>         0.1376
     24 H6          6.0869   -1.5890   -0.0558 H         1 <0>         0.1210
     25 H7          8.5467   -1.6174   -0.0892 H         1 <0>         0.1203
     26 H8          3.9717   -1.5460   -0.0435 H         1 <0>         0.1779
     27 H9          1.1441   -1.7671   -0.0176 H         1 <0>         0.1542
     28 H10        -0.9313   -0.5474    0.0080 H         1 <0>         0.1459
     29 H11        -0.9561    1.9258    0.0171 H         1 <0>         0.1515
     30 O2          0.0484    4.2498    0.0244 O.co2     1 <0>        -0.7518
@<TRIPOS>BOND
     1    1    2 1
     2    1   19 1
     3    1   20 1
     4    1   21 1
     5    2    7 ar
     6    2    3 ar
     7    3    4 ar
     8    3   22 1
     9    4    5 ar
    10    4   23 1
    11    5    6 ar
    12    5    8 1
    13    6    7 ar
    14    6   24 1
    15    7   25 1
    16    8   16 1
    17    8    9 2
    18    9   10 1
    19    9   26 1
    20   10   15 1
    21   10   11 1
    22   11   12 2
    23   11   27 1
    24   12   13 1
    25   12   28 1
    26   13   14 2
    27   13   29 1
    28   14   15 1
    29   14   17 1
    30   15   16 2
    31   17   18 2
    32   17   30 1
@<TRIPOS>MOLECULE
ZINC38137397
   33    34     0     0     0
SMALL
USER_CHARGES

@<TRIPOS>ATOM
      1 C1         -0.0167    1.3800    0.0096 C.ar      1 <0>        -0.0170
      2 C2          1.1642    2.0963    0.0022 C.ar      1 <0>        -0.2629
      3 C3          2.3824    1.4315   -0.0134 C.ar      1 <0>         0.3521
      4 C4          2.4083    0.0274   -0.0212 C.ar      1 <0>        -0.1577
      5 C5          1.2040   -0.6851   -0.0130 C.ar      1 <0>         0.1825
      6 C6          0.0021   -0.0041    0.0020 C.ar      1 <0>        -0.2594
      7 F1          1.2166   -2.0360   -0.0208 F         1 <0>        -0.1444
      8 C7          3.6587   -0.6704   -0.0377 C.1       1 <0>         0.3104
      9 N1          4.6506   -1.2240   -0.0509 N.1       1 <0>        -0.4778
     10 N2          3.5714    2.1521   -0.0218 N.2       1 <0>        -1.0818
     11 S1          3.5363    3.8077   -0.0132 S.o2      1 <0>         2.5362
     12 O1          2.9134    4.1635   -1.2398 O.2       1 <0>        -1.0222
     13 O2          2.9383    4.1512    1.2293 O.2       1 <0>        -1.0171
     14 C8          5.2790    4.3110   -0.0283 C.3       1 <0>        -0.5541
     15 C9          6.0104    3.6518    1.1428 C.3       1 <0>        -0.0958
     16 C10         7.4802    4.0763    1.1300 C.3       1 <0>        -0.1130
     17 C11         7.5728    5.5978    1.2624 C.3       1 <0>        -0.1207
     18 C12         6.8414    6.2570    0.0914 C.3       1 <0>        -0.1089
     19 C13         5.3715    5.8325    0.1041 C.3       1 <0>        -0.1082
     20 H1         -0.9613    1.9034    0.0260 H         1 <0>         0.1207
     21 H2          1.1396    3.1760    0.0082 H         1 <0>         0.1149
     22 H3         -0.9273   -0.5542    0.0083 H         1 <0>         0.1250
     23 H4          5.7391    3.9993   -0.9659 H         1 <0>         0.1241
     24 H5          5.5502    3.9636    2.0804 H         1 <0>         0.0709
     25 H6          5.9444    2.5679    1.0484 H         1 <0>         0.0890
     26 H7          8.0013    3.6067    1.9643 H         1 <0>         0.0628
     27 H8          7.9404    3.7646    0.1924 H         1 <0>         0.0614
     28 H9          7.1127    5.9096    2.2001 H         1 <0>         0.0622
     29 H10         8.6200    5.9002    1.2534 H         1 <0>         0.0591
     30 H11         6.9073    7.3410    0.1857 H         1 <0>         0.0627
     31 H12         7.3015    5.9453   -0.8462 H         1 <0>         0.0630
     32 H13         4.8505    6.3022   -0.7301 H         1 <0>         0.0695
     33 H14         4.9114    6.1443    1.0418 H         1 <0>         0.0742
@<TRIPOS>BOND
     1    1    6 ar
     2    1    2 ar
     3    1   20 1
     4    2    3 ar
     5    2   21 1
     6    3    4 ar
     7    3   10 1
     8    4    5 ar
     9    4    8 1
    10    5    6 ar
    11    5    7 1
    12    6   22 1
    13    8    9 3
    14   10   11 1
    15   11   12 2
    16   11   13 2
    17   11   14 1
    18   14   19 1
    19   14   15 1
    20   14   23 1
    21   15   16 1
    22   15   24 1
    23   15   25 1
    24   16   17 1
    25   16   26 1
    26   16   27 1
    27   17   18 1
    28   17   28 1
    29   17   29 1
    30   18   19 1
    31   18   30 1
    32   18   31 1
    33   19   32 1
    34   19   33 1
@<TRIPOS>MOLECULE
ZINC50289266
   43    44     0     0     0
SMALL
USER_CHARGES

@<TRIPOS>ATOM
      1 C1         -0.0184    1.5028    0.0103 C.3       1 <0>        -0.1015
      2 C2          0.0021   -0.0041    0.0020 C.ar      1 <0>         0.1549
      3 C3          0.0060   -0.6998   -1.1967 C.ar      1 <0>        -0.1318
      4 C4          0.0255   -2.0850   -1.1547 C.ar      1 <0>         0.2090
      5 N1          0.0396   -2.6933    0.0204 N.ar      1 <0>        -0.5282
      6 C5          0.0353   -1.9986    1.1404 C.ar      1 <0>         0.2997
      7 N2          0.0221   -0.6807    1.1391 N.ar      1 <0>        -0.5225
      8 C6          0.0514   -2.7306    2.4576 C.3       1 <0>        -0.0085
      9 H1          0.0651   -3.8053    2.2759 H         1 <0>         0.0914
     10 C7          1.2989   -2.3310    3.2480 C.3       1 <0>        -0.1056
     11 C8          1.3152   -3.0742    4.5853 C.3       1 <0>        -0.1183
     12 C9          0.0645   -2.7085    5.3872 C.3       1 <0>        -0.1132
     13 C10        -1.1830   -3.1082    4.5968 C.3       1 <0>        -0.0894
     14 H2         -2.0740   -2.8477    5.1681 H         1 <0>         0.0687
     15 C11        -1.1993   -2.3650    3.2595 C.3       1 <0>        -0.1022
     16 C12        -1.1637   -4.6166    4.3417 C.3       1 <0>        -0.1524
     17 C13         0.0301   -2.8877   -2.4302 C.3       1 <0>        -0.1157
     18 C14        -0.0110    0.0322   -2.5138 C.3       1 <0>        -0.1274
     19 H3         -0.0254    1.1068   -2.3321 H         1 <0>         0.0803
     20 C15         1.2396   -0.3327   -3.3162 C.3       1 <0>        -0.1307
     21 C16        -1.2399   -0.3623   -3.2919 C.2       1 <0>         0.5025
     22 O1         -2.0287   -1.1635   -2.8205 O.co2     1 <0>        -0.6815
     23 O2         -1.4452    0.1199   -4.3927 O.co2     1 <0>        -0.6913
     24 H4          1.0042    1.8801    0.0026 H         1 <0>         0.0761
     25 H5         -0.5455    1.8639   -0.8728 H         1 <0>         0.0815
     26 H6         -0.5286    1.8543    0.9071 H         1 <0>         0.0747
     27 H7          2.1899   -2.5915    2.6767 H         1 <0>         0.0568
     28 H8          1.2851   -1.2563    3.4297 H         1 <0>         0.0724
     29 H9          1.3290   -4.1488    4.4036 H         1 <0>         0.0644
     30 H10         2.2040   -2.7895    5.1484 H         1 <0>         0.0599
     31 H11         0.0761   -3.2380    6.3399 H         1 <0>         0.0584
     32 H12         0.0508   -1.6339    5.5689 H         1 <0>         0.0622
     33 H13        -1.2131   -1.2903    3.4412 H         1 <0>         0.0725
     34 H14        -2.0881   -2.6497    2.6964 H         1 <0>         0.0601
     35 H15        -1.1521   -5.1461    5.2944 H         1 <0>         0.0503
     36 H16        -2.0525   -4.9013    3.7786 H         1 <0>         0.0536
     37 H17        -0.2727   -4.8771    3.7704 H         1 <0>         0.0621
     38 H18         1.0587   -3.0669   -2.7431 H         1 <0>         0.0648
     39 H19        -0.4697   -3.8415   -2.2611 H         1 <0>         0.0680
     40 H20        -0.4956   -2.3352   -3.2091 H         1 <0>         0.1153
     41 H21         1.2540   -1.4073   -3.4979 H         1 <0>         0.0585
     42 H22         1.2272    0.1968   -4.2689 H         1 <0>         0.0637
     43 H23         2.1284   -0.0474   -2.7535 H         1 <0>         0.0384
@<TRIPOS>BOND
     1    1    2 1
     2    1   24 1
     3    1   25 1
     4    1   26 1
     5    2    7 ar
     6    2    3 ar
     7    3    4 ar
     8    3   18 1
     9    4    5 ar
    10    4   17 1
    11    5    6 ar
    12    6    7 ar
    13    6    8 1
    14    8    9 1
    15    8   15 1
    16    8   10 1
    17   10   11 1
    18   10   27 1
    19   10   28 1
    20   11   12 1
    21   11   29 1
    22   11   30 1
    23   12   13 1
    24   12   31 1
    25   12   32 1
    26   13   14 1
    27   13   15 1
    28   13   16 1
    29   15   33 1
    30   15   34 1
    31   16   35 1
    32   16   36 1
    33   16   37 1
    34   17   38 1
    35   17   39 1
    36   17   40 1
    37   18   19 1
    38   18   20 1
    39   18   21 1
    40   20   41 1
    41   20   42 1
    42   20   43 1
    43   21   22 2
    44   21   23 1
@<TRIPOS>MOLECULE
ZINC57968446
   40    41     0     0     0
SMALL
USER_CHARGES

@<TRIPOS>ATOM
      1 C1         -0.0184    1.5028    0.0103 C.3       1 <0>        -0.1111
      2 C2          0.0021   -0.0041    0.0020 C.ar      1 <0>        -0.0875
      3 C3          0.0057   -0.6887   -1.1989 C.ar      1 <0>        -0.1279
      4 C4          0.0245   -2.0708   -1.2065 C.ar      1 <0>        -0.0856
      5 C5          0.0400   -2.7685   -0.0132 C.ar      1 <0>        -0.1128
      6 C6          0.0373   -2.0839    1.1877 C.ar      1 <0>        -0.0737
      7 C7          0.0229   -0.7016    1.1953 C.ar      1 <0>        -0.1087
      8 C8          0.0537   -2.8444    2.4887 C.3       1 <0>         0.1809
      9 H1          0.4275   -3.8558    2.3290 H         1 <0>         0.1101
     10 C9         -1.3644   -2.8889    3.0998 C.3       1 <0>        -0.1536
     11 H2         -2.1254   -2.7708    2.3285 H         1 <0>         0.0903
     12 C10        -1.3392   -1.6648    4.0443 C.3       1 <0>        -0.1421
     13 C11         0.1276   -1.4689    4.3585 C.2       1 <0>         0.5270
     14 O1          0.5586   -0.8001    5.2740 O.2       1 <0>        -0.5461
     15 N1          0.8855   -2.1453    3.4752 N.am      1 <0>        -0.6019
     16 C12         2.3500   -2.1804    3.4950 C.3       1 <0>         0.1556
     17 C13         2.8963   -0.7595    3.3414 C.3       1 <0>        -0.1637
     18 C14         2.8281   -2.7698    4.8235 C.3       1 <0>        -0.1671
     19 C15        -1.5783   -4.1640    3.8739 C.2       1 <0>         0.5035
     20 O2         -2.3331   -4.1767    4.8313 O.co2     1 <0>        -0.6874
     21 O3         -0.9965   -5.1831    3.5427 O.co2     1 <0>        -0.6892
     22 C16         0.0274   -2.8172   -2.5157 C.3       1 <0>        -0.1113
     23 H3          1.0042    1.8801    0.0026 H         1 <0>         0.0662
     24 H4         -0.5455    1.8639   -0.8728 H         1 <0>         0.0630
     25 H5         -0.5286    1.8543    0.9071 H         1 <0>         0.0643
     26 H6         -0.0064   -0.1436   -2.1312 H         1 <0>         0.1156
     27 H7          0.0540   -3.8484   -0.0191 H         1 <0>         0.1251
     28 H8          0.0245   -0.1667    2.1335 H         1 <0>         0.1156
     29 H9         -1.7422   -0.7861    3.5408 H         1 <0>         0.0869
     30 H10        -1.8998   -1.8743    4.9553 H         1 <0>         0.1128
     31 H11         2.7097   -2.7988    2.6727 H         1 <0>         0.0821
     32 H12         2.5365   -0.1410    4.1637 H         1 <0>         0.0696
     33 H13         3.9859   -0.7856    3.3561 H         1 <0>         0.0603
     34 H14         2.5557   -0.3396    2.3950 H         1 <0>         0.0546
     35 H15         2.4389   -3.7820    4.9329 H         1 <0>         0.0609
     36 H16         3.9177   -2.7959    4.8382 H         1 <0>         0.0601
     37 H17         2.4683   -2.1513    5.6458 H         1 <0>         0.0694
     38 H18         1.0557   -2.9831   -2.8370 H         1 <0>         0.0668
     39 H19        -0.4727   -3.7772   -2.3878 H         1 <0>         0.0668
     40 H20        -0.4985   -2.2310   -3.2693 H         1 <0>         0.0622
@<TRIPOS>BOND
     1    1    2 1
     2    1   23 1
     3    1   24 1
     4    1   25 1
     5    2    7 ar
     6    2    3 ar
     7    3    4 ar
     8    3   26 1
     9    4    5 ar
    10    4   22 1
    11    5    6 ar
    12    5   27 1
    13    6    7 ar
    14    6    8 1
    15    7   28 1
    16    8    9 1
    17    8   15 1
    18    8   10 1
    19   10   11 1
    20   10   12 1
    21   10   19 1
    22   12   13 1
    23   12   29 1
    24   12   30 1
    25   13   14 2
    26   13   15 am
    27   15   16 1
    28   16   17 1
    29   16   18 1
    30   16   31 1
    31   17   32 1
    32   17   33 1
    33   17   34 1
    34   18   35 1
    35   18   36 1
    36   18   37 1
    37   19   20 2
    38   19   21 1
    39   22   38 1
    40   22   39 1
    41   22   40 1
@<TRIPOS>MOLECULE
ZINC62842405
   41    42     0     0     0
SMALL
USER_CHARGES

@<TRIPOS>ATOM
      1 C1         -0.0307    1.5034    0.0107 C.3       1 <0>        -0.1230
      2 C2         -0.0095   -0.0034    0.0021 C.ar      1 <0>        -0.0635
      3 C3         -0.0083   -0.6881   -1.1950 C.ar      1 <0>        -0.1251
      4 C4          0.0111   -2.0717   -1.2049 C.ar      1 <0>        -0.1094
      5 C5          0.0294   -2.7794   -0.0153 C.ar      1 <0>        -0.1269
      6 C6          0.0280   -2.1093    1.1896 C.ar      1 <0>        -0.0985
      7 C7          0.0147   -0.7109    1.2079 C.ar      1 <0>        -0.0706
      8 C8          0.0197    0.0123    2.4900 C.2       1 <0>        -0.0351
      9 C9          0.0432   -0.6733    3.6505 C.2       1 <0>        -0.2001
     10 C10         0.0481    0.0461    4.9259 C.2       1 <0>         0.5453
     11 O1          0.1258    1.2605    4.9392 O.2       1 <0>        -0.5571
     12 N1         -0.0333   -0.6367    6.0850 N.am      1 <0>        -0.5961
     13 C11        -0.0088   -2.1058    6.0918 C.3       1 <0>         0.1016
     14 C12        -1.2328   -2.6158    6.8589 C.3       1 <0>        -0.1031
     15 C13        -1.2582   -1.9812    8.2512 C.3       1 <0>        -0.1311
     16 C14        -1.3704   -0.4607    8.1187 C.3       1 <0>        -0.1060
     17 C15        -0.1422    0.0739    7.3664 C.3       1 <0>         0.1127
     18 C16         0.0309   -2.3342    8.9959 C.3       1 <0>        -0.1191
     19 C17        -2.4424   -2.5067    9.0210 C.2       1 <0>         0.5026
     20 O2         -2.3873   -2.6000   10.2354 O.co2     1 <0>        -0.6965
     21 O3         -3.4555   -2.8386    8.4294 O.co2     1 <0>        -0.6975
     22 H1          0.9916    1.8812    0.0006 H         1 <0>         0.0742
     23 H2         -0.5602    1.8643   -0.8711 H         1 <0>         0.0685
     24 H3         -0.5390    1.8545    0.9087 H         1 <0>         0.0736
     25 H4         -0.0229   -0.1430   -2.1272 H         1 <0>         0.1236
     26 H5          0.0116   -2.6022   -2.1456 H         1 <0>         0.1223
     27 H6          0.0445   -3.8591   -0.0311 H         1 <0>         0.1248
     28 H7          0.0416   -2.6628    2.1169 H         1 <0>         0.1282
     29 H8          0.0046    1.0921    2.5010 H         1 <0>         0.1371
     30 H9          0.0583   -1.7531    3.6396 H         1 <0>         0.1324
     31 H10        -0.0390   -2.4765    5.0672 H         1 <0>         0.0784
     32 H11         0.9006   -2.4537    6.5818 H         1 <0>         0.0700
     33 H12        -2.1398   -2.3443    6.3187 H         1 <0>         0.0704
     34 H13        -1.1765   -3.7002    6.9543 H         1 <0>         0.0672
     35 H14        -2.2760   -0.2094    7.5667 H         1 <0>         0.0619
     36 H15        -1.4119   -0.0111    9.1108 H         1 <0>         0.0713
     37 H16         0.7565   -0.0999    7.9582 H         1 <0>         0.0682
     38 H17        -0.2606    1.1419    7.1830 H         1 <0>         0.0860
     39 H18         0.8877   -1.9548    8.4391 H         1 <0>         0.0368
     40 H19         0.0130   -1.8823    9.9876 H         1 <0>         0.0574
     41 H20         0.1103   -3.4171    9.0915 H         1 <0>         0.0445
@<TRIPOS>BOND
     1    1    2 1
     2    1   22 1
     3    1   23 1
     4    1   24 1
     5    2    7 ar
     6    2    3 ar
     7    3    4 ar
     8    3   25 1
     9    4    5 ar
    10    4   26 1
    11    5    6 ar
    12    5   27 1
    13    6    7 ar
    14    6   28 1
    15    7    8 1
    16    8    9 2
    17    8   29 1
    18    9   10 1
    19    9   30 1
    20   10   11 2
    21   10   12 am
    22   12   17 1
    23   12   13 1
    24   13   14 1
    25   13   31 1
    26   13   32 1
    27   14   15 1
    28   14   33 1
    29   14   34 1
    30   15   16 1
    31   15   18 1
    32   15   19 1
    33   16   17 1
    34   16   35 1
    35   16   36 1
    36   17   37 1
    37   17   38 1
    38   18   39 1
    39   18   40 1
    40   18   41 1
    41   19   20 2
    42   19   21 1
@<TRIPOS>MOLECULE
ZINC04503228
   40    42     0     0     0
SMALL
USER_CHARGES
[10-hydroxy-10-(trifluoromethyl)-8,9-diazabicyclo[5.3.0]dec-7-en-9-yl]-(4-methyl-3-furyl)-methanone
@<TRIPOS>ATOM
      1 C1         -1.7103   -1.3311    7.0045 C.3       1 <0>        -0.0881
      2 C2         -1.1401   -1.6505    5.6466 C.2       1 <0>        -0.1298
      3 C3         -0.6421   -2.8268    5.2357 C.2       1 <0>        -0.0476
      4 O1         -0.2333   -2.7107    3.9626 O.3       1 <0>        -0.1717
      5 C4         -0.4520   -1.4751    3.5021 C.2       1 <0>         0.0602
      6 C5         -1.0164   -0.7370    4.5012 C.2       1 <0>        -0.2476
      7 C6         -1.4228    0.6781    4.4426 C.2       1 <0>         0.6266
      8 O2         -1.9222    1.2083    5.4167 O.2       1 <0>        -0.4977
      9 N1         -1.2410    1.3850    3.3095 N.am      1 <0>        -0.4753
     10 C7         -1.5894    2.7969    3.1160 C.3       1 <0>         0.2775
     11 C8         -1.3287    3.0104    1.6033 C.3       1 <0>        -0.0705
     12 H1         -0.6997    3.8840    1.4321 H         1 <0>         0.1386
     13 C9         -2.6994    3.1848    0.9485 C.3       1 <0>        -0.1854
     14 C10        -2.5925    3.4163   -0.5321 C.3       1 <0>        -0.1100
     15 C11        -2.1107    2.2100   -1.2887 C.3       1 <0>        -0.1244
     16 C12        -0.6258    2.0684   -1.3562 C.3       1 <0>        -0.1140
     17 C13         0.0070    1.4293   -0.1481 C.3       1 <0>        -0.0494
     18 C14        -0.6533    1.7459    1.1623 C.2       1 <0>         0.1475
     19 N2         -0.6846    0.9025    2.1324 N.2       1 <0>        -0.2580
     20 C15        -3.0636    3.0334    3.4503 C.3       1 <0>         0.4340
     21 F1         -3.8524    2.1044    2.7634 F         1 <0>        -0.1642
     22 F2         -3.2593    2.8835    4.8274 F         1 <0>        -0.1500
     23 F3         -3.4270    4.3285    3.0659 F         1 <0>        -0.1593
     24 O3         -0.7488    3.6466    3.8992 O.3       1 <0>        -0.5185
     25 H2         -2.7808   -1.5359    7.0063 H         1 <0>         0.0712
     26 H3         -1.2210   -1.9481    7.7582 H         1 <0>         0.0678
     27 H4         -1.5413   -0.2784    7.2310 H         1 <0>         0.0794
     28 H5         -0.5800   -3.7238    5.8340 H         1 <0>         0.2094
     29 H6         -0.2190   -1.1205    2.5089 H         1 <0>         0.2274
     30 H7         -3.2040    4.0366    1.4046 H         1 <0>         0.1100
     31 H8         -3.2916    2.2868    1.1247 H         1 <0>         0.0993
     32 H9         -1.9001    4.2395   -0.7085 H         1 <0>         0.0668
     33 H10        -3.5744    3.6985   -0.9122 H         1 <0>         0.0730
     34 H11        -2.4986    2.2633   -2.3059 H         1 <0>         0.0697
     35 H12        -2.5206    1.3200   -0.8111 H         1 <0>         0.0611
     36 H13        -0.1915    3.0594   -1.4880 H         1 <0>         0.0684
     37 H14        -0.3796    1.4675   -2.2317 H         1 <0>         0.0796
     38 H15        -0.0068    0.3481   -0.2860 H         1 <0>         0.0934
     39 H16         1.0465    1.7527   -0.0947 H         1 <0>         0.1002
     40 H17        -0.8731    3.5514    4.8535 H         1 <0>         0.4002
@<TRIPOS>BOND
     1    1    2 1
     2    1   25 1
     3    1   26 1
     4    1   27 1
     5    2    6 1
     6    2    3 2
     7    3    4 1
     8    3   28 1
     9    4    5 1
    10    5    6 2
    11    5   29 1
    12    6    7 1
    13    7    8 2
    14    7    9 am
    15    9   19 1
    16    9   10 1
    17   10   11 1
    18   10   20 1
    19   10   24 1
    20   11   12 1
    21   11   18 1
    22   11   13 1
    23   13   14 1
    24   13   30 1
    25   13   31 1
    26   14   15 1
    27   14   32 1
    28   14   33 1
    29   15   16 1
    30   15   34 1
    31   15   35 1
    32   16   17 1
    33   16   36 1
    34   16   37 1
    35   17   18 1
    36   17   38 1
    37   17   39 1
    38   18   19 2
    39   20   21 1
    40   20   22 1
    41   20   23 1
    42   24   40 1
@<TRIPOS>MOLECULE
ZINC09721768
   47    50     0     0     0
SMALL
USER_CHARGES
2-(2,5-dioxabicyclo[4.4.0]deca-7,9,11-trien-8-yl)-N-(m-tolyl)pyrrolidine-1-carboxamide
@<TRIPOS>ATOM
      1 C1          4.9020    3.4529  -10.8798 C.3       1 <0>        -0.1145
      2 C2          4.3229    3.1662   -9.5184 C.ar      1 <0>        -0.0665
      3 C3          2.9596    3.2720   -9.3114 C.ar      1 <0>        -0.1383
      4 C4          2.4245    3.0103   -8.0637 C.ar      1 <0>        -0.0953
      5 C5          3.2499    2.6357   -7.0213 C.ar      1 <0>        -0.1253
      6 C6          4.6197    2.5346   -7.2243 C.ar      1 <0>         0.1705
      7 C7          5.1542    2.7986   -8.4787 C.ar      1 <0>        -0.1506
      8 N1          5.4594    2.1619   -6.1686 N.am      1 <0>        -0.6854
      9 C8          5.1615    2.5325   -4.9075 C.2       1 <0>         0.7221
     10 O1          4.2183    3.2704   -4.6975 O.2       1 <0>        -0.5565
     11 N2          5.9091    2.0850   -3.8792 N.am      1 <0>        -0.6278
     12 C9          7.0746    1.1891   -3.9903 C.3       1 <0>         0.0936
     13 C10         7.9137    1.4706   -2.7190 C.3       1 <0>        -0.1308
     14 C11         6.8048    1.6959   -1.6574 C.3       1 <0>        -0.1240
     15 C12         5.6968    2.4088   -2.4609 C.3       1 <0>         0.2009
     16 H1          5.7634    3.4867   -2.3128 H         1 <0>         0.0875
     17 C13         4.3439    1.9135   -2.0190 C.ar      1 <0>        -0.0822
     18 C14         3.8669    0.7020   -2.4839 C.ar      1 <0>        -0.0968
     19 C15         2.6260    0.2452   -2.0823 C.ar      1 <0>        -0.1125
     20 C16         1.8557    1.0013   -1.2112 C.ar      1 <0>         0.0511
     21 C17         2.3365    2.2177   -0.7415 C.ar      1 <0>         0.0533
     22 C18         3.5822    2.6709   -1.1495 C.ar      1 <0>        -0.0958
     23 O2          1.6003    2.9720    0.1197 O.3       1 <0>        -0.3072
     24 C19         0.2051    2.6647    0.2133 C.3       1 <0>         0.0203
     25 C20         0.0556    1.1422    0.3360 C.3       1 <0>         0.0205
     26 O3          0.6342    0.5399   -0.8270 O.3       1 <0>        -0.3079
     27 H2          4.9262    2.5337  -11.4652 H         1 <0>         0.0715
     28 H3          4.2838    4.1920  -11.3894 H         1 <0>         0.0681
     29 H4          5.9149    3.8402  -10.7696 H         1 <0>         0.0658
     30 H5          2.3116    3.5600  -10.1260 H         1 <0>         0.1224
     31 H6          1.3594    3.0938   -7.9052 H         1 <0>         0.1247
     32 H7          2.8308    2.4268   -6.0481 H         1 <0>         0.1343
     33 H8          6.2188    2.7169   -8.6408 H         1 <0>         0.1230
     34 H9          6.2558    1.6369   -6.3445 H         1 <0>         0.4048
     35 H10         6.7524    0.1480   -4.0093 H         1 <0>         0.0723
     36 H11         7.6507    1.4252   -4.8850 H         1 <0>         0.0746
     37 H12         8.5326    0.6112   -2.4611 H         1 <0>         0.0893
     38 H13         8.5237    2.3654   -2.8436 H         1 <0>         0.0802
     39 H14         7.1670    2.3332   -0.8507 H         1 <0>         0.0899
     40 H15         6.4459    0.7438   -1.2666 H         1 <0>         0.0838
     41 H16         4.4650    0.1117   -3.1623 H         1 <0>         0.1242
     42 H17         2.2555   -0.7013   -2.4473 H         1 <0>         0.1330
     43 H18         3.9572    3.6169   -0.7877 H         1 <0>         0.1340
     44 H19        -0.3091    3.0135   -0.6823 H         1 <0>         0.0780
     45 H20        -0.2196    3.1478    1.0933 H         1 <0>         0.1232
     46 H21         0.5751    0.7925    1.2281 H         1 <0>         0.0779
     47 H22        -1.0006    0.8804    0.3986 H         1 <0>         0.1227
@<TRIPOS>BOND
     1    1    2 1
     2    1   27 1
     3    1   28 1
     4    1   29 1
     5    2    7 ar
     6    2    3 ar
     7    3    4 ar
     8    3   30 1
     9    4    5 ar
    10    4   31 1
    11    5    6 ar
    12    5   32 1
    13    6    7 ar
    14    6    8 1
    15    7   33 1
    16    8    9 am
    17    8   34 1
    18    9   10 2
    19    9   11 am
    20   11   15 1
    21   11   12 1
    22   12   13 1
    23   12   35 1
    24   12   36 1
    25   13   14 1
    26   13   37 1
    27   13   38 1
    28   14   15 1
    29   14   39 1
    30   14   40 1
    31   15   16 1
    32   15   17 1
    33   17   22 ar
    34   17   18 ar
    35   18   19 ar
    36   18   41 1
    37   19   20 ar
    38   19   42 1
    39   20   26 1
    40   20   21 ar
    41   21   22 ar
    42   21   23 1
    43   22   43 1
    44   23   24 1
    45   24   25 1
    46   24   44 1
    47   24   45 1
    48   25   26 1
    49   25   46 1
    50   25   47 1
@<TRIPOS>MOLECULE
ZINC26423047
   32    34     0     0     0
SMALL
USER_CHARGES
1-(4-chlorophenyl)-5-(3-nitrophenyl)imidazole-2-thiol
@<TRIPOS>ATOM
      1 C1          1.1180    1.7666    0.2201 C.ar      1 <0>        -0.1030
      2 C2          1.1125    3.1200    0.0461 C.ar      1 <0>        -0.0502
      3 C3         -0.0534    3.8599    0.3470 C.ar      1 <0>        -0.0108
      4 C4         -1.2020    3.1847    0.8195 C.ar      1 <0>        -0.0587
      5 C5         -1.1718    1.8301    0.9791 C.ar      1 <0>         0.0122
      6 C6         -0.0191    1.1146    0.6796 C.ar      1 <0>        -0.0511
      7 N1         -2.3723    1.1196    1.4740 N.pl3     1 <0>        -0.0268
      8 O1         -2.3463   -0.1878    1.6296 O.2       1 <0>        -0.1574
      9 O2         -3.4665    1.7951    1.7588 O.3       1 <0>        -0.1548
     10 C7         -0.0707    5.2588    0.1781 C.2       1 <0>         0.0035
     11 C8          1.1020    6.1703    0.1069 C.2       1 <0>         0.0470
     12 N2          0.6388    7.3759   -0.0623 N.pl3     1 <0>        -0.5076
     13 C9         -0.7148    7.3529   -0.1006 C.2       1 <0>         0.4249
     14 N3         -1.1699    6.0623    0.0453 N.pl3     1 <0>        -0.3781
     15 C10        -2.5081    5.6488    0.0551 C.ar      1 <0>         0.1073
     16 C11        -3.0063    4.8801   -0.9888 C.ar      1 <0>        -0.0868
     17 C12        -4.3245    4.4689   -0.9739 C.ar      1 <0>        -0.0985
     18 C13        -5.1520    4.8318    0.0745 C.ar      1 <0>        -0.0038
     19 C14        -4.6595    5.6026    1.1132 C.ar      1 <0>        -0.0921
     20 C15        -3.3406    6.0116    1.1059 C.ar      1 <0>        -0.0649
     21 Cl1        -6.8107    4.3197    0.0864 Cl        1 <0>        -0.0463
     22 S1         -1.7139    8.7286   -0.3012 S.2       1 <0>        -0.5969
     23 H1          2.0091    1.1992   -0.0050 H         1 <0>         0.1583
     24 H2          1.9966    3.6242   -0.3151 H         1 <0>         0.1515
     25 H3         -2.0993    3.7386    1.0527 H         1 <0>         0.1576
     26 H4         -0.0058    0.0424    0.8095 H         1 <0>         0.1606
     27 H5          2.0278    5.8012    0.1879 H         1 <0>         0.1958
     28 H6         -2.3621    4.6004   -1.8093 H         1 <0>         0.1376
     29 H7         -4.7113    3.8676   -1.7833 H         1 <0>         0.1473
     30 H8         -5.3074    5.8848    1.9299 H         1 <0>         0.1507
     31 H9         -2.9568    6.6134    1.9165 H         1 <0>         0.1433
     32 H10         1.3331    8.2245   -0.1503 H         1 <0>         0.4903
@<TRIPOS>BOND
     1    1    6 ar
     2    1    2 ar
     3    1   23 1
     4    2    3 ar
     5    2   24 1
     6    3    4 ar
     7    3   10 1
     8    4    5 ar
     9    4   25 1
    10    5    6 ar
    11    5    7 1
    12    6   26 1
    13    7    8 2
    14    7    9 1
    15   10   14 1
    16   10   11 2
    17   11   27 1
    18   11   12 1
    19   12   13 1
    20   12   32 1
    21   13   22 2
    22   13   14 1
    23   14   15 1
    24   15   20 ar
    25   15   16 ar
    26   16   17 ar
    27   16   28 1
    28   17   18 ar
    29   17   29 1
    30   18   19 ar
    31   18   21 1
    32   19   20 ar
    33   19   30 1
    34   20   31 1
@<TRIPOS>MOLECULE
ZINC56582637
   49    52     0     0     0
SMALL
USER_CHARGES

@<TRIPOS>ATOM
      1 C1         -0.0324    1.5028    0.0174 C.3       1 <0>        -0.0808
      2 C2         -0.0021   -0.0039    0.0042 C.2       1 <0>         0.1096
      3 C3          0.0111   -0.7009   -1.1571 C.2       1 <0>        -0.2786
      4 S1          0.0459   -2.3760   -0.5404 S.3       1 <0>         0.0617
      5 C4          0.0401   -2.0191    1.1043 C.2       1 <0>         0.3189
      6 N1          0.0183   -0.7034    1.1252 N.2       1 <0>        -0.5866
      7 N2          0.0589   -2.8974    2.1764 N.pl3     1 <0>        -0.5622
      8 C5          0.0948   -4.3409    1.8967 C.3       1 <0>         0.1276
      9 C6          1.0756   -5.0910    2.8017 C.3       1 <0>        -0.1558
     10 C7          2.3520   -4.2923    2.9723 C.3       1 <0>         0.1165
     11 N3          2.1591   -3.3630    4.0854 N.am      1 <0>        -0.6168
     12 C8          1.5065   -2.1047    3.9802 C.3       1 <0>         0.1098
     13 C9          0.0483   -2.3464    3.5202 C.3       1 <0>         0.1182
     14 C10         2.6324   -3.7252    5.2943 C.2       1 <0>         0.6975
     15 O1          2.5827   -2.9448    6.2253 O.2       1 <0>        -0.5810
     16 N4          3.1607   -4.9524    5.4711 N.am      1 <0>        -0.7368
     17 C11         3.5769   -5.3851    6.8074 C.3       1 <0>         0.2021
     18 H1          2.9136   -4.9657    7.5638 H         1 <0>         0.1036
     19 C12         3.5814   -6.9261    6.8942 C.3       1 <0>        -0.1236
     20 C13         4.7750   -7.2017    7.8331 C.3       1 <0>        -0.0805
     21 C14         5.6967   -6.0133    7.6615 C.ar      1 <0>        -0.0950
     22 C15         5.0073   -4.9670    7.0731 C.ar      1 <0>        -0.1122
     23 C16         5.6537   -3.7691    6.8201 C.ar      1 <0>        -0.0838
     24 C17         6.9852   -3.6136    7.1540 C.ar      1 <0>        -0.1245
     25 C18         7.6749   -4.6564    7.7430 C.ar      1 <0>        -0.1138
     26 C19         7.0315   -5.8576    7.9946 C.ar      1 <0>        -0.1113
     27 H2          0.9877    1.8867    0.0147 H         1 <0>         0.0742
     28 H3         -0.5586    1.8633   -0.8665 H         1 <0>         0.0743
     29 H4         -0.5483    1.8480    0.9134 H         1 <0>         0.0733
     30 H5          0.0026   -0.3421   -2.1758 H         1 <0>         0.1902
     31 H6         -0.9040   -4.7527    2.0417 H         1 <0>         0.0740
     32 H7          0.3883   -4.4913    0.8578 H         1 <0>         0.0803
     33 H8          0.6166   -5.2500    3.7775 H         1 <0>         0.0798
     34 H9          1.3115   -6.0570    2.3554 H         1 <0>         0.0955
     35 H10         3.1807   -4.9650    3.1933 H         1 <0>         0.0820
     36 H11         2.5626   -3.7350    2.0595 H         1 <0>         0.0809
     37 H12         1.5084   -1.6087    4.9508 H         1 <0>         0.1125
     38 H13         2.0229   -1.4844    3.2475 H         1 <0>         0.0675
     39 H14        -0.4923   -1.3999    3.5227 H         1 <0>         0.0966
     40 H15        -0.4365   -3.0481    4.1990 H         1 <0>         0.0818
     41 H16         3.2654   -5.5491    4.7136 H         1 <0>         0.3960
     42 H17         2.6523   -7.2923    7.3309 H         1 <0>         0.0868
     43 H18         3.7504   -7.3689    5.9126 H         1 <0>         0.0787
     44 H19         4.4352   -7.2707    8.8665 H         1 <0>         0.0856
     45 H20         5.2833   -8.1201    7.5392 H         1 <0>         0.0802
     46 H21         5.1154   -2.9537    6.3599 H         1 <0>         0.1198
     47 H22         7.4867   -2.6781    6.9547 H         1 <0>         0.1227
     48 H23         8.7159   -4.5365    8.0046 H         1 <0>         0.1240
     49 H24         7.5700   -6.6727    8.4550 H         1 <0>         0.1210
@<TRIPOS>BOND
     1    1    2 1
     2    1   27 1
     3    1   28 1
     4    1   29 1
     5    2    6 1
     6    2    3 2
     7    3    4 1
     8    3   30 1
     9    4    5 1
    10    5    6 2
    11    5    7 1
    12    7   13 1
    13    7    8 1
    14    8    9 1
    15    8   31 1
    16    8   32 1
    17    9   10 1
    18    9   33 1
    19    9   34 1
    20   10   11 1
    21   10   35 1
    22   10   36 1
    23   11   12 1
    24   11   14 am
    25   12   13 1
    26   12   37 1
    27   12   38 1
    28   13   39 1
    29   13   40 1
    30   14   15 2
    31   14   16 am
    32   16   17 1
    33   16   41 1
    34   17   18 1
    35   17   22 1
    36   17   19 1
    37   19   20 1
    38   19   42 1
    39   19   43 1
    40   20   21 1
    41   20   44 1
    42   20   45 1
    43   21   26 ar
    44   21   22 ar
    45   22   23 ar
    46   23   24 ar
    47   23   46 1
    48   24   25 ar
    49   24   47 1
    50   25   26 ar
    51   25   48 1
    52   26   49 1
@<TRIPOS>MOLECULE
ZINC40286834
   41    44     0     0     0
SMALL
USER_CHARGES

@<TRIPOS>ATOM
      1 C1         -0.0173    1.4248    0.0099 C.3       1 <0>         0.0269
      2 O1          0.0021   -0.0041    0.0020 O.3       1 <0>        -0.3164
      3 C2         -1.2003   -0.6375    0.0101 C.ar      1 <0>         0.1298
      4 C3         -2.3748    0.1012    0.0195 C.ar      1 <0>        -0.2065
      5 C4         -3.5956   -0.5449    0.0272 C.ar      1 <0>        -0.0768
      6 C5         -3.6478   -1.9268    0.0256 C.ar      1 <0>        -0.1504
      7 C6         -2.4790   -2.6650    0.0167 C.ar      1 <0>        -0.0405
      8 C7         -1.2554   -2.0235    0.0032 C.ar      1 <0>        -0.1360
      9 C8         -2.5396   -4.1708    0.0155 C.3       1 <0>         0.0460
     10 H1         -1.5297   -4.5809    0.0080 H         1 <0>         0.1181
     11 C9         -3.3071   -4.6586   -1.2184 C.3       1 <0>        -0.1020
     12 C10        -4.7891   -4.5025   -1.0419 C.2       1 <0>         0.3894
     13 N1         -5.3868   -4.6133    0.1075 N.2       1 <0>        -0.5471
     14 C11        -4.6371   -4.8501    1.2218 C.2       1 <0>         0.1946
     15 C12        -3.2781   -4.6535    1.2390 C.2       1 <0>        -0.0265
     16 N2         -2.8294   -4.9575    2.4499 N.2       1 <0>        -0.4480
     17 C13        -3.8309   -5.3410    3.2024 C.2       1 <0>         0.1894
     18 N3         -4.9846   -5.2893    2.4660 N.pl3     1 <0>        -0.3963
     19 C14        -6.2734   -5.6223    2.9055 C.ar      1 <0>         0.1504
     20 C15        -7.3293   -4.7464    2.6909 C.ar      1 <0>        -0.1067
     21 C16        -8.5985   -5.0759    3.1245 C.ar      1 <0>        -0.0736
     22 C17        -8.8196   -6.2772    3.7724 C.ar      1 <0>        -0.1455
     23 C18        -7.7692   -7.1533    3.9889 C.ar      1 <0>         0.1172
     24 C19        -6.4971   -6.8303    3.5508 C.ar      1 <0>        -0.1524
     25 F1         -7.9877   -8.3261    4.6230 F         1 <0>        -0.1301
     26 O2         -5.5394   -4.2333   -2.1311 O.3       1 <0>        -0.4542
     27 H2          1.0053    1.8021    0.0021 H         1 <0>         0.1016
     28 H3         -0.5445    1.7859   -0.8732 H         1 <0>         0.0560
     29 H4         -0.5275    1.7763    0.9067 H         1 <0>         0.0555
     30 H5         -2.3345    1.1804    0.0211 H         1 <0>         0.1282
     31 H6         -4.5101    0.0296    0.0349 H         1 <0>         0.1238
     32 H7         -4.6033   -2.4302    0.0316 H         1 <0>         0.1193
     33 H8         -0.3426   -2.6006   -0.0083 H         1 <0>         0.1345
     34 H9         -2.9892   -4.0815   -2.0868 H         1 <0>         0.1153
     35 H10        -3.0775   -5.7105   -1.3879 H         1 <0>         0.1135
     36 H11        -3.7582   -5.6485    4.2351 H         1 <0>         0.2176
     37 H12        -7.1581   -3.8076    2.1853 H         1 <0>         0.1384
     38 H13        -9.4193   -4.3942    2.9577 H         1 <0>         0.1450
     39 H14        -9.8130   -6.5325    4.1106 H         1 <0>         0.1447
     40 H15        -5.6785   -7.5154    3.7150 H         1 <0>         0.1446
     41 H16        -6.4844   -4.1455   -1.9458 H         1 <0>         0.4095
@<TRIPOS>BOND
     1    1    2 1
     2    1   27 1
     3    1   28 1
     4    1   29 1
     5    2    3 1
     6    3    8 ar
     7    3    4 ar
     8    4    5 ar
     9    4   30 1
    10    5    6 ar
    11    5   31 1
    12    6    7 ar
    13    6   32 1
    14    7    8 ar
    15    7    9 1
    16    8   33 1
    17    9   10 1
    18    9   15 1
    19    9   11 1
    20   11   12 1
    21   11   34 1
    22   11   35 1
    23   12   13 2
    24   12   26 1
    25   13   14 1
    26   14   18 1
    27   14   15 2
    28   15   16 1
    29   16   17 2
    30   17   18 1
    31   17   36 1
    32   18   19 1
    33   19   24 ar
    34   19   20 ar
    35   20   21 ar
    36   20   37 1
    37   21   22 ar
    38   21   38 1
    39   22   23 ar
    40   22   39 1
    41   23   24 ar
    42   23   25 1
    43   24   40 1
    44   26   41 1
@<TRIPOS>MOLECULE
ZINC67587343
   39    41     0     0     0
SMALL
USER_CHARGES

@<TRIPOS>ATOM
      1 C1         -0.0184    1.5028    0.0103 C.3       1 <0>        -0.1202
      2 C2          0.0021   -0.0041    0.0020 C.ar      1 <0>        -0.0731
      3 C3          0.0057   -0.6888   -1.1991 C.ar      1 <0>        -0.1178
      4 C4          0.0245   -2.0707   -1.2067 C.ar      1 <0>        -0.1141
      5 C5          0.0400   -2.7685   -0.0132 C.ar      1 <0>        -0.1239
      6 C6          0.0373   -2.0840    1.1875 C.ar      1 <0>        -0.0960
      7 C7          0.0229   -0.7015    1.1951 C.ar      1 <0>        -0.0903
      8 C8          0.0252    0.0449    2.5043 C.3       1 <0>         0.1980
      9 H1          0.6102    0.9596    2.4083 H         1 <0>         0.0912
     10 C9         -1.4221    0.3882    2.9153 C.3       1 <0>        -0.1236
     11 C10        -1.4053    0.1804    4.4528 C.3       1 <0>        -0.1296
     12 C11        -0.4416   -1.0242    4.5933 C.3       1 <0>         0.0887
     13 N1          0.5933   -0.8032    3.5624 N.am      1 <0>        -0.6237
     14 C12         1.8474   -1.2964    3.5851 C.2       1 <0>         0.7148
     15 O1          2.6150   -1.0478    2.6756 O.2       1 <0>        -0.5031
     16 N2          2.2506   -2.0652    4.6161 N.am      1 <0>        -0.6184
     17 C13         3.5447   -2.5742    4.6395 C.2       1 <0>         0.2661
     18 N3          4.5164   -2.4160    3.7626 N.2       1 <0>        -0.2981
     19 N4          5.6524   -2.9458    3.9221 N.2       1 <0>        -0.1786
     20 C14         5.8736   -3.6779    4.9953 C.2       1 <0>        -0.0912
     21 S1          4.2830   -3.5487    5.8004 S.3       1 <0>         0.1543
     22 C15         7.1174   -4.4127    5.4246 C.3       1 <0>         0.3859
     23 F1          8.2457   -3.7416    4.9412 F         1 <0>        -0.1731
     24 F2          7.1690   -4.4654    6.8216 F         1 <0>        -0.1843
     25 H2          1.0042    1.8801    0.0026 H         1 <0>         0.0734
     26 H3         -0.5455    1.8639   -0.8728 H         1 <0>         0.0692
     27 H4         -0.5286    1.8543    0.9071 H         1 <0>         0.0662
     28 H5         -0.0064   -0.1437   -2.1314 H         1 <0>         0.1231
     29 H6          0.0266   -2.6056   -2.1449 H         1 <0>         0.1216
     30 H7          0.0540   -3.8484   -0.0191 H         1 <0>         0.1185
     31 H8          0.0491   -2.6290    2.1199 H         1 <0>         0.1099
     32 H9         -1.6578    1.4235    2.6686 H         1 <0>         0.0916
     33 H10        -2.1293   -0.2928    2.4418 H         1 <0>         0.0847
     34 H11        -1.0090    1.0592    4.9615 H         1 <0>         0.0820
     35 H12        -2.3993   -0.0690    4.8242 H         1 <0>         0.0919
     36 H13         0.0095   -1.0354    5.5855 H         1 <0>         0.0760
     37 H14        -0.9718   -1.9580    4.4062 H         1 <0>         0.0766
     38 H15         1.6382   -2.2635    5.3417 H         1 <0>         0.4249
     39 H16         7.0976   -5.4259    5.0232 H         1 <0>         0.1504
@<TRIPOS>BOND
     1    1    2 1
     2    1   25 1
     3    1   26 1
     4    1   27 1
     5    2    7 ar
     6    2    3 ar
     7    3    4 ar
     8    3   28 1
     9    4    5 ar
    10    4   29 1
    11    5    6 ar
    12    5   30 1
    13    6    7 ar
    14    6   31 1
    15    7    8 1
    16    8    9 1
    17    8   13 1
    18    8   10 1
    19   10   11 1
    20   10   32 1
    21   10   33 1
    22   11   12 1
    23   11   34 1
    24   11   35 1
    25   12   13 1
    26   12   36 1
    27   12   37 1
    28   13   14 am
    29   14   15 2
    30   14   16 am
    31   16   17 1
    32   16   38 1
    33   17   21 1
    34   17   18 2
    35   18   19 1
    36   19   20 2
    37   20   21 1
    38   20   22 1
    39   22   23 1
    40   22   24 1
    41   22   39 1
@<TRIPOS>MOLECULE
ZINC09014180
   50    52     0     0     0
SMALL
USER_CHARGES
(5E)-1-(3-chloro-4-methyl-phenyl)-5-[[1-(2-methoxyethyl)-2,5-dimethyl-pyrrol-3-yl]methylene]-2-thioxo-hexahydropyrimidine-4,6-dione
@<TRIPOS>ATOM
      1 C1          2.2478    3.8029   12.8306 C.3       1 <0>        -0.1118
      2 C2          2.0626    3.5113   11.3637 C.ar      1 <0>        -0.0783
      3 C3          1.5063    4.4681   10.5348 C.ar      1 <0>        -0.1003
      4 C4          1.3352    4.2040    9.1901 C.ar      1 <0>        -0.0784
      5 C5          1.7225    2.9760    8.6697 C.ar      1 <0>         0.1743
      6 C6          2.2760    2.0149    9.5045 C.ar      1 <0>        -0.0809
      7 C7          2.4493    2.2864   10.8489 C.ar      1 <0>        -0.0257
      8 Cl1         3.1469    1.0878   11.8932 Cl        1 <0>        -0.0758
      9 N1          1.5496    2.7056    7.3061 N.am      1 <0>        -0.5122
     10 C8          0.4314    2.0717    6.8967 C.2       1 <0>         0.5617
     11 O1         -0.4231    1.7342    7.6943 O.2       1 <0>        -0.5150
     12 C9          0.2757    1.7938    5.4569 C.2       1 <0>        -0.3021
     13 C10        -0.8421    1.1425    4.9632 C.2       1 <0>         0.1154
     14 C11        -1.0536    1.0597    3.5657 C.2       1 <0>        -0.1798
     15 C12        -0.9251    2.1461    2.5834 C.2       1 <0>        -0.0798
     16 C13        -1.2193    1.6114    1.3873 C.2       1 <0>        -0.0124
     17 N2         -1.5242    0.2897    1.5473 N.pl3     1 <0>        -0.4327
     18 C14        -1.4257   -0.0628    2.8409 C.2       1 <0>         0.0714
     19 C15        -1.6813   -1.4363    3.4058 C.3       1 <0>        -0.0939
     20 C16        -1.9014   -0.6178    0.4608 C.3       1 <0>         0.1026
     21 C17        -0.6454   -1.2778   -0.1117 C.3       1 <0>         0.0436
     22 O2         -1.0133   -2.1629   -1.1715 O.3       1 <0>        -0.3910
     23 C18         0.0926   -2.8344   -1.7784 C.3       1 <0>         0.0303
     24 C19        -1.2194    2.3541    0.0760 C.3       1 <0>        -0.0816
     25 C20         1.3601    2.2456    4.5651 C.2       1 <0>         0.5280
     26 O3          1.3012    2.0574    3.3645 O.3       1 <0>        -0.4976
     27 N3          2.4189    2.8736    5.1168 N.2       1 <0>        -0.6250
     28 C21         2.4962    3.0881    6.4376 C.2       1 <0>         0.5442
     29 S1          3.8782    3.8933    7.0482 S.2       1 <0>        -0.6966
     30 H1          1.8850    4.8176   13.0514 H         1 <0>         0.0675
     31 H2          3.3152    3.7313   13.0868 H         1 <0>         0.0727
     32 H3          1.6784    3.0727   13.4243 H         1 <0>         0.0706
     33 H4          1.2054    5.4232   10.9393 H         1 <0>         0.1336
     34 H5          0.9003    4.9518    8.5436 H         1 <0>         0.1258
     35 H6          2.5741    1.0574    9.1035 H         1 <0>         0.1280
     36 H7         -1.5658    0.6894    5.6568 H         1 <0>         0.1334
     37 H8         -0.6486    3.1706    2.7840 H         1 <0>         0.1379
     38 H9         -1.9596   -2.1216    2.5916 H         1 <0>         0.0659
     39 H10        -2.5006   -1.3850    4.1380 H         1 <0>         0.0824
     40 H11        -0.7703   -1.8048    3.9000 H         1 <0>         0.0809
     41 H12        -2.5785   -1.3930    0.8490 H         1 <0>         0.0977
     42 H13        -2.4106   -0.0495   -0.3315 H         1 <0>         0.0997
     43 H14         0.0317   -0.5026   -0.4998 H         1 <0>         0.0607
     44 H15        -0.1362   -1.8461    0.6806 H         1 <0>         0.0582
     45 H16        -0.2733   -3.4929   -2.5800 H         1 <0>         0.0898
     46 H17         0.6171   -3.4354   -1.0210 H         1 <0>         0.0442
     47 H18         0.7852   -2.0918   -2.2014 H         1 <0>         0.0448
     48 H19        -1.4980    1.6655   -0.7353 H         1 <0>         0.0576
     49 H20        -0.2150    2.7595   -0.1158 H         1 <0>         0.0762
     50 H21        -1.9453    3.1793    0.1221 H         1 <0>         0.0721
@<TRIPOS>BOND
     1    1    2 1
     2    1   30 1
     3    1   31 1
     4    1   32 1
     5    2    7 ar
     6    2    3 ar
     7    3    4 ar
     8    3   33 1
     9    4    5 ar
    10    4   34 1
    11    5    6 ar
    12    5    9 1
    13    6    7 ar
    14    6   35 1
    15    7    8 1
    16    9   28 1
    17    9   10 am
    18   10   11 2
    19   10   12 1
    20   12   13 2
    21   12   25 1
    22   13   14 1
    23   13   36 1
    24   14   18 2
    25   14   15 1
    26   15   16 2
    27   15   37 1
    28   16   17 1
    29   16   24 1
    30   17   18 1
    31   17   20 1
    32   18   19 1
    33   19   38 1
    34   19   39 1
    35   19   40 1
    36   20   21 1
    37   20   41 1
    38   20   42 1
    39   21   22 1
    40   21   43 1
    41   21   44 1
    42   22   23 1
    43   23   45 1
    44   23   46 1
    45   23   47 1
    46   24   48 1
    47   24   49 1
    48   24   50 1
    49   25   26 1
    50   25   27 2
    51   27   28 1
    52   28   29 2
@<TRIPOS>MOLECULE
ZINC41069709
   28    29     0     0     0
SMALL
USER_CHARGES

@<TRIPOS>ATOM
      1 C1         -0.0178    1.4608    0.0101 C.3       1 <0>         0.0660
      2 N1          0.0021   -0.0041    0.0020 N.am      1 <0>        -0.4768
      3 C2         -1.1715   -0.6924    0.0039 C.2       1 <0>        -0.0031
      4 C3         -1.1760   -2.0511   -0.0034 C.2       1 <0>         0.1729
      5 C4          0.0414   -2.7546   -0.0131 C.2       1 <0>        -0.0861
      6 C5          1.2137   -2.0578   -0.0150 C.2       1 <0>        -0.2246
      7 C6          1.1814   -0.6534   -0.0127 C.2       1 <0>         0.4914
      8 O1          2.2254   -0.0200   -0.0197 O.2       1 <0>        -0.6027
      9 N2         -2.3924   -2.7504   -0.0009 N.2       1 <0>        -1.0773
     10 S1         -2.3955   -4.4064   -0.0099 S.o2      1 <0>         2.5967
     11 O2         -1.8519   -4.8067   -1.2603 O.2       1 <0>        -1.0262
     12 O3         -1.8390   -4.8203    1.2303 O.2       1 <0>        -1.0102
     13 C7         -4.0797   -4.9242   -0.0039 C.ar      1 <0>        -0.6514
     14 C8         -4.6061   -5.6124   -1.0857 C.ar      1 <0>         0.0534
     15 C9         -5.9372   -6.0010   -1.0371 C.ar      1 <0>        -0.1752
     16 C10        -6.6894   -5.6910    0.0810 C.ar      1 <0>         0.1842
     17 N3         -6.1556   -5.0342    1.0923 N.ar      1 <0>        -0.4858
     18 C11        -4.8918   -4.6540    1.0831 C.ar      1 <0>         0.2766
     19 Cl1        -4.2429   -3.7991    2.4475 Cl        1 <0>         0.0256
     20 Br1        -6.7131   -6.9421   -2.4821 Br        1 <0>        -0.0248
     21 H1          1.0048    1.8381    0.0023 H         1 <0>         0.0926
     22 H2         -0.5450    1.8219   -0.8730 H         1 <0>         0.0680
     23 H3         -0.5280    1.8123    0.9069 H         1 <0>         0.0681
     24 H4         -2.1077   -0.1540    0.0117 H         1 <0>         0.1524
     25 H5          0.0481   -3.8345   -0.0187 H         1 <0>         0.1135
     26 H6          2.1585   -2.5810   -0.0220 H         1 <0>         0.1377
     27 H7         -3.9947   -5.8405   -1.9463 H         1 <0>         0.1683
     28 H8         -7.7262   -5.9899    0.1265 H         1 <0>         0.1770
@<TRIPOS>BOND
     1    1    2 1
     2    1   21 1
     3    1   22 1
     4    1   23 1
     5    2    7 am
     6    2    3 1
     7    3    4 2
     8    3   24 1
     9    4    5 1
    10    4    9 1
    11    5    6 2
    12    5   25 1
    13    6    7 1
    14    6   26 1
    15    7    8 2
    16    9   10 1
    17   10   11 2
    18   10   12 2
    19   10   13 1
    20   13   18 ar
    21   13   14 ar
    22   14   15 ar
    23   14   27 1
    24   15   16 ar
    25   15   20 1
    26   16   17 ar
    27   16   28 1
    28   17   18 ar
    29   18   19 1
@<TRIPOS>MOLECULE
ZINC59862927
   36    38     0     0     0
SMALL
USER_CHARGES

@<TRIPOS>ATOM
      1 C1         -2.0077    1.3887   -0.2514 C.3       1 <0>        -0.1258
      2 C2         -1.5342   -0.0403   -0.1833 C.ar      1 <0>        -0.0521
      3 C3         -1.2021   -0.7108   -1.3415 C.ar      1 <0>        -0.0882
      4 C4         -0.7627   -2.0359   -1.2765 C.ar      1 <0>         0.0155
      5 C5         -0.6631   -2.6725   -0.0358 C.ar      1 <0>        -0.1031
      6 C6         -0.9984   -1.9903    1.1141 C.ar      1 <0>        -0.0860
      7 C7         -1.4282   -0.6753    1.0428 C.ar      1 <0>        -0.0949
      8 Br1        -1.8784    0.2549    2.6264 Br        1 <0>        -0.0548
      9 C8         -0.4062   -2.7596   -2.5111 C.2       1 <0>         0.0422
     10 C9          0.0338   -4.0675   -2.5798 C.2       1 <0>        -0.1963
     11 C10         0.2556   -4.3538   -3.9231 C.2       1 <0>        -0.1700
     12 C11        -0.0590   -3.2014   -4.6368 C.2       1 <0>         0.0294
     13 O1         -0.4609   -2.2586   -3.7564 O.3       1 <0>        -0.0946
     14 C12         0.0212   -3.0476   -6.0247 C.2       1 <0>         0.0616
     15 C13         0.5194   -1.8614   -6.5683 C.2       1 <0>        -0.2230
     16 C14         1.1396   -0.8776   -5.7490 C.2       1 <0>         0.4831
     17 O2          1.2604   -1.0728   -4.4184 O.3       1 <0>        -0.6163
     18 N1          1.5966    0.2303   -6.3078 N.2       1 <0>        -0.6661
     19 C15         1.4958    0.4570   -7.6151 C.2       1 <0>         0.6661
     20 O3          1.9392    1.5005   -8.0616 O.2       1 <0>        -0.5736
     21 N2          0.9268   -0.4145   -8.4639 N.am      1 <0>        -0.5897
     22 C16         0.4279   -1.5853   -8.0110 C.2       1 <0>         0.5621
     23 O4         -0.0853   -2.3851   -8.7719 O.2       1 <0>        -0.5287
     24 C17         0.8519   -0.0957   -9.8918 C.3       1 <0>         0.0785
     25 H1         -1.1509    2.0590   -0.1831 H         1 <0>         0.0805
     26 H2         -2.5251    1.5555   -1.1962 H         1 <0>         0.0743
     27 H3         -2.6897    1.5853    0.5759 H         1 <0>         0.0755
     28 H4         -1.2817   -0.2133   -2.2968 H         1 <0>         0.1413
     29 H5         -0.3246   -3.6965    0.0215 H         1 <0>         0.1364
     30 H6         -0.9222   -2.4809    2.0732 H         1 <0>         0.1359
     31 H7          0.1788   -4.7404   -1.7477 H         1 <0>         0.1499
     32 H8          0.6050   -5.2900   -4.3329 H         1 <0>         0.1539
     33 H9         -0.3022   -3.8461   -6.6760 H         1 <0>         0.1614
     34 H10         1.3047    0.8796  -10.0706 H         1 <0>         0.0944
     35 H11         1.3870   -0.8548  -10.4622 H         1 <0>         0.0608
     36 H12        -0.1920   -0.0745  -10.2050 H         1 <0>         0.0606
@<TRIPOS>BOND
     1    1    2 1
     2    1   25 1
     3    1   26 1
     4    1   27 1
     5    2    7 ar
     6    2    3 ar
     7    3    4 ar
     8    3   28 1
     9    4    5 ar
    10    4    9 1
    11    5    6 ar
    12    5   29 1
    13    6    7 ar
    14    6   30 1
    15    7    8 1
    16    9   13 1
    17    9   10 2
    18   10   11 1
    19   10   31 1
    20   11   12 2
    21   11   32 1
    22   12   13 1
    23   12   14 1
    24   14   15 2
    25   14   33 1
    26   15   22 1
    27   15   16 1
    28   16   17 1
    29   16   18 2
    30   18   19 1
    31   19   20 2
    32   19   21 am
    33   21   22 am
    34   21   24 1
    35   22   23 2
    36   24   34 1
    37   24   35 1
    38   24   36 1
@<TRIPOS>MOLECULE
ZINC13082619
   56    58     0     0     0
SMALL
USER_CHARGES

@<TRIPOS>ATOM
      1 C1         -0.0184    1.5028    0.0103 C.3       1 <0>        -0.1139
      2 C2          0.0021   -0.0041    0.0020 C.2       1 <0>         0.2241
      3 C3         -1.1554   -0.6876    0.0039 C.2       1 <0>        -0.2440
      4 C4         -1.1739   -2.1880    0.0051 C.3       1 <0>         0.0865
      5 H1         -1.9446   -2.5369   -0.6821 H         1 <0>         0.0893
      6 C5          0.1602   -2.7464   -0.4223 C.2       1 <0>        -0.2616
      7 C6          1.2670   -1.9738   -0.4101 C.2       1 <0>         0.2012
      8 N1          1.1975   -0.6669   -0.0130 N.pl3     1 <0>        -0.6309
      9 C7          2.6038   -2.5236   -0.8422 C.3       1 <0>        -0.0953
     10 C8          2.6704   -4.0195   -0.5265 C.3       1 <0>        -0.1108
     11 C9          1.5174   -4.7210   -1.2521 C.3       1 <0>        -0.1694
     12 C10         0.2183   -4.0906   -0.8303 C.2       1 <0>         0.4009
     13 O1         -0.7990   -4.7549   -0.8425 O.2       1 <0>        -0.4622
     14 C11        -1.4917   -2.6776    1.3945 C.ar      1 <0>        -0.1210
     15 C12        -0.6637   -2.3426    2.4502 C.ar      1 <0>        -0.0621
     16 C13        -0.9520   -2.7896    3.7247 C.ar      1 <0>        -0.2032
     17 C14        -2.0752   -3.5766    3.9455 C.ar      1 <0>         0.2111
     18 C15        -2.9048   -3.9112    2.8828 C.ar      1 <0>        -0.1936
     19 C16        -2.6137   -3.4561    1.6117 C.ar      1 <0>        -0.0327
     20 N2         -2.3695   -4.0308    5.2331 N.pl3     1 <0>        -0.6413
     21 C17        -1.4932   -3.6773    6.3527 C.3       1 <0>         0.0955
     22 C18        -3.5545   -4.8606    5.4641 C.3       1 <0>         0.0949
     23 C19        -2.3795    0.0212    0.0051 C.2       1 <0>         0.5224
     24 O2         -2.3780    1.2380    0.0045 O.2       1 <0>        -0.5276
     25 O3         -3.5490   -0.6521    0.0069 O.3       1 <0>        -0.3337
     26 C20        -4.7465    0.1276    0.0081 C.3       1 <0>         0.0706
     27 C21        -5.9610   -0.8029    0.0101 C.3       1 <0>         0.0621
     28 O4         -5.9913   -1.5439    1.2316 O.3       1 <0>        -0.3796
     29 C22        -7.0929   -2.4481    1.3357 C.3       1 <0>         0.0315
     30 H2          1.0042    1.8801    0.0026 H         1 <0>         0.0612
     31 H3         -0.5455    1.8639   -0.8728 H         1 <0>         0.1018
     32 H4         -0.5286    1.8543    0.9071 H         1 <0>         0.0997
     33 H5          2.0054   -0.2073    0.2645 H         1 <0>         0.4186
     34 H6          2.7286   -2.3730   -1.9145 H         1 <0>         0.1000
     35 H7          3.3995   -2.0042   -0.3082 H         1 <0>         0.0884
     36 H8          3.6214   -4.4247   -0.8723 H         1 <0>         0.0858
     37 H9          2.5733   -4.1717    0.5484 H         1 <0>         0.0757
     38 H10         1.6436   -4.6112   -2.3292 H         1 <0>         0.0992
     39 H11         1.5115   -5.7790   -0.9901 H         1 <0>         0.0962
     40 H12         0.2096   -1.7310    2.2778 H         1 <0>         0.1057
     41 H13        -0.3048   -2.5279    4.5487 H         1 <0>         0.1153
     42 H14        -3.7786   -4.5232    3.0509 H         1 <0>         0.1176
     43 H15        -3.2607   -3.7123    0.7858 H         1 <0>         0.1188
     44 H16        -1.8347   -2.7442    6.8008 H         1 <0>         0.0454
     45 H17        -1.5204   -4.4705    7.0998 H         1 <0>         0.0640
     46 H18        -0.4726   -3.5542    5.9904 H         1 <0>         0.0665
     47 H19        -3.2896   -5.9119    5.3510 H         1 <0>         0.0459
     48 H20        -3.9287   -4.6868    6.4730 H         1 <0>         0.0636
     49 H21        -4.3269   -4.6006    4.7403 H         1 <0>         0.0686
     50 H22        -4.7694    0.7570    0.8978 H         1 <0>         0.0743
     51 H23        -4.7717    0.7560   -0.8822 H         1 <0>         0.0808
     52 H24        -6.8722   -0.2112   -0.0786 H         1 <0>         0.0702
     53 H25        -5.8920   -1.4922   -0.8314 H         1 <0>         0.0612
     54 H26        -7.0474   -3.1715    0.5217 H         1 <0>         0.0427
     55 H27        -7.0441   -2.9718    2.2904 H         1 <0>         0.0859
     56 H28        -8.0276   -1.8906    1.2745 H         1 <0>         0.0399
@<TRIPOS>BOND
     1    1    2 1
     2    1   30 1
     3    1   31 1
     4    1   32 1
     5    2    8 1
     6    2    3 2
     7    3    4 1
     8    3   23 1
     9    4    5 1
    10    4    6 1
    11    4   14 1
    12    6   12 1
    13    6    7 2
    14    7    8 1
    15    7    9 1
    16    8   33 1
    17    9   10 1
    18    9   34 1
    19    9   35 1
    20   10   11 1
    21   10   36 1
    22   10   37 1
    23   11   12 1
    24   11   38 1
    25   11   39 1
    26   12   13 2
    27   14   19 ar
    28   14   15 ar
    29   15   16 ar
    30   15   40 1
    31   16   17 ar
    32   16   41 1
    33   17   18 ar
    34   17   20 1
    35   18   19 ar
    36   18   42 1
    37   19   43 1
    38   20   21 1
    39   20   22 1
    40   21   44 1
    41   21   45 1
    42   21   46 1
    43   22   47 1
    44   22   48 1
    45   22   49 1
    46   23   24 2
    47   23   25 1
    48   25   26 1
    49   26   27 1
    50   26   50 1
    51   26   51 1
    52   27   28 1
    53   27   52 1
    54   27   53 1
    55   28   29 1
    56   29   54 1
    57   29   55 1
    58   29   56 1
@<TRIPOS>MOLECULE
ZINC67047578
   46    48     0     0     0
SMALL
USER_CHARGES

@<TRIPOS>ATOM
      1 C1         -0.0530    1.8078   -0.0018 C.3       1 <0>        -0.6373
      2 S1         -0.0213   -0.0059   -0.0085 S.o2      1 <0>         2.5277
      3 O1          0.8153   -0.4846    1.0357 O.2       1 <0>        -1.0258
      4 O2         -1.3364   -0.5178   -0.1754 O.2       1 <0>        -1.0258
      5 N1          0.7708   -0.4126   -1.4047 N.2       1 <0>        -1.0895
      6 C2          0.9721   -1.7512   -1.7256 C.ar      1 <0>         0.3109
      7 C3          0.5016   -2.7475   -0.8742 C.ar      1 <0>        -0.2681
      8 C4          0.6982   -4.0679   -1.1864 C.ar      1 <0>        -0.0249
      9 C5          1.3728   -4.4139   -2.3637 C.ar      1 <0>        -0.2175
     10 C6          1.8439   -3.4088   -3.2173 C.ar      1 <0>        -0.0410
     11 C7          1.6384   -2.0909   -2.9001 C.ar      1 <0>        -0.1954
     12 C8          1.5862   -5.8276   -2.7021 C.2       1 <0>         0.0526
     13 C9          2.2370   -6.1592   -3.8380 C.2       1 <0>        -0.3001
     14 C10         2.4493   -7.5660   -4.1747 C.2       1 <0>         0.5619
     15 O3          2.1208   -8.4361   -3.3894 O.2       1 <0>        -0.5603
     16 N2          3.0088   -7.8994   -5.3547 N.am      1 <0>        -0.6164
     17 C11         3.5205   -6.8618   -6.2603 C.3       1 <0>         0.1048
     18 C12         4.9757   -7.1874   -6.6111 C.3       1 <0>        -0.1353
     19 C13         5.0548   -8.6081   -7.1745 C.3       1 <0>        -0.1045
     20 C14         4.5783   -9.6056   -6.1162 C.3       1 <0>        -0.0120
     21 H1          5.1970   -9.5125   -5.2237 H         1 <0>         0.0979
     22 C15         3.1240   -9.3078   -5.7571 C.3       1 <0>         0.1285
     23 C16         4.6878  -11.0068   -6.6602 C.2       1 <0>         0.0686
     24 N3          4.1061  -11.5171   -7.7168 N.2       1 <0>        -0.5145
     25 C17         4.3022  -12.7722   -8.0687 C.2       1 <0>         0.0362
     26 C18         5.1329  -13.5079   -7.2865 C.2       1 <0>        -0.2376
     27 S2          5.5931  -12.2931   -6.0614 S.3       1 <0>         0.1019
     28 H2          0.9681    2.1891   -0.0118 H         1 <0>         0.1162
     29 H3         -0.5829    2.1652   -0.8848 H         1 <0>         0.1162
     30 H4         -0.5632    2.1590    0.8951 H         1 <0>         0.1032
     31 H5         -0.0186   -2.4797    0.0336 H         1 <0>         0.1055
     32 H6          0.3336   -4.8400   -0.5252 H         1 <0>         0.1076
     33 H7          2.3650   -3.6714   -4.1261 H         1 <0>         0.1101
     34 H8          1.9975   -1.3151   -3.5601 H         1 <0>         0.1149
     35 H9          1.2226   -6.6016   -2.0425 H         1 <0>         0.1189
     36 H10         2.6006   -5.3852   -4.4976 H         1 <0>         0.1263
     37 H11         2.9207   -6.8428   -7.1703 H         1 <0>         0.0688
     38 H12         3.4718   -5.8906   -5.7679 H         1 <0>         0.0967
     39 H13         5.3373   -6.4796   -7.3570 H         1 <0>         0.0819
     40 H14         5.5907   -7.1170   -5.7139 H         1 <0>         0.0712
     41 H15         4.4203   -8.6845   -8.0574 H         1 <0>         0.0765
     42 H16         6.0857   -8.8335   -7.4478 H         1 <0>         0.0664
     43 H17         2.8139   -9.9499   -4.9328 H         1 <0>         0.0932
     44 H18         2.4912   -9.4927   -6.6251 H         1 <0>         0.0749
     45 H19         3.8236  -13.1959   -8.9393 H         1 <0>         0.1714
     46 H20         5.4346  -14.5406   -7.3812 H         1 <0>         0.1949
@<TRIPOS>BOND
     1    1    2 1
     2    1   28 1
     3    1   29 1
     4    1   30 1
     5    2    3 2
     6    2    4 2
     7    2    5 1
     8    5    6 1
     9    6   11 ar
    10    6    7 ar
    11    7    8 ar
    12    7   31 1
    13    8    9 ar
    14    8   32 1
    15    9   10 ar
    16    9   12 1
    17   10   11 ar
    18   10   33 1
    19   11   34 1
    20   12   13 2
    21   12   35 1
    22   13   14 1
    23   13   36 1
    24   14   15 2
    25   14   16 am
    26   16   22 1
    27   16   17 1
    28   17   18 1
    29   17   37 1
    30   17   38 1
    31   18   19 1
    32   18   39 1
    33   18   40 1
    34   19   20 1
    35   19   41 1
    36   19   42 1
    37   20   21 1
    38   20   22 1
    39   20   23 1
    40   22   43 1
    41   22   44 1
    42   23   27 1
    43   23   24 2
    44   24   25 1
    45   25   26 2
    46   25   45 1
    47   26   27 1
    48   26   46 1
@<TRIPOS>MOLECULE
ZINC28115554
   44    47     0     0     0
SMALL
USER_CHARGES
N-(3,4-dimethylisoxazol-5-yl)-4-(1-iminoisoindolin-2-yl)benzenesulfonamide
@<TRIPOS>ATOM
      1 C1         -3.1740    1.7042    0.3412 C.3       1 <0>        -0.0321
      2 C2         -2.0944    1.8386    1.3840 C.2       1 <0>        -0.3143
      3 C3         -0.7181    1.5718    1.2479 C.2       1 <0>         0.0350
      4 N1         -0.1730    1.8332    2.4031 N.2       1 <0>        -0.4164
      5 O1         -0.9903    2.2075    3.2117 O.3       1 <0>         0.0068
      6 C4         -2.2236    2.2448    2.6827 C.2       1 <0>         0.2897
      7 N2         -3.3895    2.6236    3.3216 N.2       1 <0>        -0.9837
      8 S1         -3.3485    3.0950    4.9086 S.o2      1 <0>         2.6003
      9 O2         -4.6797    3.4432    5.2634 O.2       1 <0>        -0.9875
     10 O3         -2.6083    2.1037    5.6077 O.2       1 <0>        -1.0213
     11 C5         -2.4018    4.5790    4.9869 C.ar      1 <0>        -0.6943
     12 C6         -1.0352    4.5157    5.1890 C.ar      1 <0>         0.0259
     13 C7         -0.2896    5.6767    5.2461 C.ar      1 <0>        -0.1921
     14 C8         -0.9153    6.9095    5.1109 C.ar      1 <0>         0.2322
     15 C9         -2.2889    6.9697    4.9133 C.ar      1 <0>        -0.2312
     16 C10        -3.0279    5.8046    4.8520 C.ar      1 <0>         0.0220
     17 N3         -0.1642    8.0869    5.1730 N.pl3     1 <0>        -0.5799
     18 C11         1.2855    8.1718    5.3818 C.3       1 <0>         0.1394
     19 C12         1.6362    9.6386    5.3698 C.ar      1 <0>        -0.0875
     20 C13         2.8264   10.3169    5.5130 C.ar      1 <0>        -0.0977
     21 C14         2.8450   11.7000    5.4644 C.ar      1 <0>        -0.0975
     22 C15         1.6703   12.4051    5.2713 C.ar      1 <0>        -0.1231
     23 C16         0.4731   11.7352    5.1264 C.ar      1 <0>        -0.0557
     24 C17         0.4468   10.3406    5.1748 C.ar      1 <0>        -0.0677
     25 C18        -0.6586    9.3663    5.0548 C.2       1 <0>         0.4292
     26 N4         -1.9105    9.6719    4.8653 N.2       1 <0>        -0.7293
     27 C19        -0.0127    1.0858    0.0080 C.3       1 <0>        -0.0654
     28 H1         -2.7308    1.3525   -0.6022 H         1 <0>         0.0437
     29 H2         -3.6517    2.6818    0.1799 H         1 <0>         0.0496
     30 H3         -3.9275    0.9801    0.6847 H         1 <0>         0.0500
     31 H4         -0.5500    3.5571    5.2985 H         1 <0>         0.1444
     32 H5          0.7783    5.6265    5.3994 H         1 <0>         0.1285
     33 H6         -2.7784    7.9266    4.8075 H         1 <0>         0.1520
     34 H7         -4.0958    5.8507    4.6980 H         1 <0>         0.1426
     35 H8          1.5442    7.7142    6.3481 H         1 <0>         0.0964
     36 H9          1.8045    7.6374    4.5724 H         1 <0>         0.0970
     37 H10         3.7452    9.7695    5.6635 H         1 <0>         0.1318
     38 H11         3.7791   12.2303    5.5772 H         1 <0>         0.1321
     39 H12         1.6907   13.4842    5.2342 H         1 <0>         0.1321
     40 H13        -0.4420   12.2887    4.9762 H         1 <0>         0.1340
     41 H14        -2.6654    8.8756    4.7877 H         1 <0>         0.3588
     42 H15         1.0611    0.9720    0.2179 H         1 <0>         0.0632
     43 H16        -0.1525    1.8155   -0.8032 H         1 <0>         0.0695
     44 H17        -0.4319    0.1152   -0.2957 H         1 <0>         0.0704
@<TRIPOS>BOND
     1    1    2 1
     2    1   28 1
     3    1   29 1
     4    1   30 1
     5    2    6 2
     6    2    3 1
     7    3    4 2
     8    3   27 1
     9    4    5 1
    10    5    6 1
    11    6    7 1
    12    7    8 1
    13    8    9 2
    14    8   10 2
    15    8   11 1
    16   11   16 ar
    17   11   12 ar
    18   12   13 ar
    19   12   31 1
    20   13   14 ar
    21   13   32 1
    22   14   15 ar
    23   14   17 1
    24   15   16 ar
    25   15   33 1
    26   16   34 1
    27   17   25 1
    28   17   18 1
    29   18   19 1
    30   18   35 1
    31   18   36 1
    32   19   24 ar
    33   19   20 ar
    34   20   21 ar
    35   20   37 1
    36   21   22 ar
    37   21   38 1
    38   22   23 ar
    39   22   39 1
    40   23   24 ar
    41   23   40 1
    42   24   25 1
    43   25   26 2
    44   26   41 1
    45   27   42 1
    46   27   43 1
    47   27   44 1
@<TRIPOS>MOLECULE
ZINC47207689
   45    49     0     0     0
SMALL
USER_CHARGES

@<TRIPOS>ATOM
      1 C1         -0.0146    1.3639    0.0616 C.ar      1 <0>        -0.1604
      2 C2          1.1701    2.0875    0.0585 C.ar      1 <0>        -0.0802
      3 C3          2.3889    1.4427    0.0368 C.ar      1 <0>        -0.1467
      4 C4          2.4296    0.0548    0.0177 C.ar      1 <0>         0.2026
      5 C5          1.2266   -0.6758    0.0209 C.ar      1 <0>        -0.1697
      6 C6          0.0035   -0.0028    0.0430 C.ar      1 <0>        -0.0326
      7 C7          1.3038   -2.1405   -0.0002 C.2       1 <0>         0.4805
      8 O1          0.1777   -2.8894    0.0014 O.3       1 <0>        -0.6353
      9 N1          2.4894   -2.7128   -0.0211 N.2       1 <0>        -0.5866
     10 C8          3.6232   -2.0010   -0.0237 C.2       1 <0>         0.4298
     11 N2          3.6261   -0.6381   -0.0049 N.pl3     1 <0>        -0.3658
     12 N3          4.9563   -0.2016   -0.0134 N.2       1 <0>        -0.3328
     13 C9          5.7535   -1.2342   -0.0365 C.2       1 <0>         0.1211
     14 C10         4.9717   -2.4057   -0.0445 C.2       1 <0>        -0.3780
     15 C11         5.4679   -3.7849   -0.0692 C.2       1 <0>         0.6018
     16 O2          4.6820   -4.7145   -0.0732 O.2       1 <0>        -0.5097
     17 N4          6.7942   -4.0237   -0.0875 N.am      1 <0>        -0.6758
     18 C12         7.2705   -5.3371    0.0058 C.ar      1 <0>         0.1855
     19 C13         6.4975   -6.3158    0.6131 C.ar      1 <0>        -0.1296
     20 C14         6.9696   -7.6115    0.7042 C.ar      1 <0>        -0.0892
     21 C15         8.2123   -7.9366    0.1915 C.ar      1 <0>        -0.1462
     22 C16         8.9894   -6.9678   -0.4148 C.ar      1 <0>        -0.0900
     23 C17         8.5208   -5.6664   -0.5166 C.ar      1 <0>         0.0911
     24 N5          9.3041   -4.6841   -1.1363 N.am      1 <0>        -0.5764
     25 C18        10.2854   -3.8453   -0.4383 C.3       1 <0>         0.1004
     26 C19        11.1840   -3.2532   -1.5466 C.3       1 <0>        -0.1299
     27 C20        10.2396   -3.2883   -2.7705 C.3       1 <0>        -0.1544
     28 C21         9.2576   -4.3928   -2.4477 C.2       1 <0>         0.5157
     29 O3          8.5319   -4.9348   -3.2545 O.2       1 <0>        -0.5125
     30 H1         -0.9598    1.8858    0.0834 H         1 <0>         0.1253
     31 H2          1.1369    3.1669    0.0730 H         1 <0>         0.1267
     32 H3          3.3057    2.0134    0.0342 H         1 <0>         0.1347
     33 H4         -0.9225   -0.5585    0.0452 H         1 <0>         0.1401
     34 H5          6.8327   -1.1968   -0.0485 H         1 <0>         0.1796
     35 H6          7.4189   -3.2857   -0.1654 H         1 <0>         0.4000
     36 H7          5.5269   -6.0653    1.0152 H         1 <0>         0.1555
     37 H8          6.3666   -8.3723    1.1773 H         1 <0>         0.1264
     38 H9          8.5767   -8.9506    0.2656 H         1 <0>         0.1228
     39 H10         9.9595   -7.2253   -0.8137 H         1 <0>         0.1215
     40 H11         9.7803   -3.0464    0.1048 H         1 <0>         0.0732
     41 H12        10.8799   -4.4504    0.2462 H         1 <0>         0.0820
     42 H13        11.4752   -2.2303   -1.3077 H         1 <0>         0.0931
     43 H14        12.0614   -3.8782   -1.7128 H         1 <0>         0.0824
     44 H15         9.7238   -2.3345   -2.8818 H         1 <0>         0.1077
     45 H16        10.7969   -3.5296   -3.6756 H         1 <0>         0.1021
@<TRIPOS>BOND
     1    1    6 ar
     2    1    2 ar
     3    1   30 1
     4    2    3 ar
     5    2   31 1
     6    3    4 ar
     7    3   32 1
     8    4   11 1
     9    4    5 ar
    10    5    6 ar
    11    5    7 1
    12    6   33 1
    13    7    8 1
    14    7    9 2
    15    9   10 1
    16   10   14 2
    17   10   11 1
    18   11   12 1
    19   12   13 2
    20   13   14 1
    21   13   34 1
    22   14   15 1
    23   15   16 2
    24   15   17 am
    25   17   18 1
    26   17   35 1
    27   18   23 ar
    28   18   19 ar
    29   19   20 ar
    30   19   36 1
    31   20   21 ar
    32   20   37 1
    33   21   22 ar
    34   21   38 1
    35   22   23 ar
    36   22   39 1
    37   23   24 1
    38   24   28 am
    39   24   25 1
    40   25   26 1
    41   25   40 1
    42   25   41 1
    43   26   27 1
    44   26   42 1
    45   26   43 1
    46   27   28 1
    47   27   44 1
    48   27   45 1
    49   28   29 2
@<TRIPOS>MOLECULE
ZINC55628570
   45    47     0     0     0
SMALL
USER_CHARGES

@<TRIPOS>ATOM
      1 C1         -0.0518    1.3604    0.0182 C.ar      1 <0>        -0.2310
      2 C2          1.1276    2.0886    0.0326 C.ar      1 <0>        -0.0459
      3 C3          2.3470    1.4435    0.0290 C.ar      1 <0>        -0.2644
      4 C4          2.4000    0.0551    0.0110 C.ar      1 <0>         0.3243
      5 C5          1.2077   -0.6851   -0.0031 C.ar      1 <0>        -0.2103
      6 C6         -0.0194   -0.0166    0.0007 C.ar      1 <0>        -0.0443
      7 C7          1.2496   -2.1587   -0.0227 C.2       1 <0>         0.5957
      8 O1          1.8850   -2.7602    0.8217 O.2       1 <0>        -0.5244
      9 N1          0.5836   -2.8391   -0.9767 N.am      1 <0>        -0.6187
     10 C8         -0.0777   -2.1284   -2.0796 C.3       1 <0>         0.1077
     11 C9          0.4143   -2.7123   -3.4076 C.3       1 <0>        -0.1343
     12 C10         0.1879   -4.2259   -3.4099 C.3       1 <0>        -0.1088
     13 C11         0.9905   -4.8651   -2.2744 C.3       1 <0>         0.0899
     14 H1          2.0483   -4.6359   -2.4027 H         1 <0>         0.0605
     15 C12         0.5102   -4.3060   -0.9368 C.3       1 <0>         0.0868
     16 O2          0.8033   -6.2816   -2.2967 O.3       1 <0>        -0.5684
     17 N2          3.6263   -0.5966    0.0065 N.2       1 <0>        -1.0620
     18 S1          5.0305    0.2811    0.0226 S.o2      1 <0>         2.5977
     19 O3          5.0870    0.9797   -1.2135 O.2       1 <0>        -1.0239
     20 O4          5.0788    0.9470    1.2770 O.2       1 <0>        -1.0207
     21 C13         6.3645   -0.8700    0.0119 C.ar      1 <0>        -0.5870
     22 C14         6.8781   -1.3400    1.2076 C.ar      1 <0>        -0.0222
     23 C15         7.9225   -2.2413    1.2066 C.ar      1 <0>        -0.0940
     24 C16         8.4609   -2.6796   -0.0049 C.ar      1 <0>         0.0014
     25 C17         7.9374   -2.2015   -1.2079 C.ar      1 <0>        -0.0955
     26 C18         6.8898   -1.3042   -1.1922 C.ar      1 <0>        -0.0255
     27 C19         9.5454   -3.6147   -0.0136 C.1       1 <0>         0.2602
     28 N3         10.4057   -4.3566   -0.0205 N.1       1 <0>        -0.4194
     29 H2         -1.0011    1.8753    0.0253 H         1 <0>         0.1075
     30 H3          1.0915    3.1679    0.0462 H         1 <0>         0.1064
     31 H4          3.2613    2.0182    0.0399 H         1 <0>         0.1028
     32 H5         -0.9414   -0.5790   -0.0105 H         1 <0>         0.1089
     33 H6         -1.1573   -2.2566   -2.0016 H         1 <0>         0.0607
     34 H7          0.1709   -1.0682   -2.0322 H         1 <0>         0.0993
     35 H8         -0.1391   -2.2605   -4.2309 H         1 <0>         0.0786
     36 H9          1.4776   -2.5034   -3.5253 H         1 <0>         0.0720
     37 H10        -0.8724   -4.4347   -3.2674 H         1 <0>         0.0680
     38 H11         0.5144   -4.6405   -4.3636 H         1 <0>         0.0674
     39 H12         1.1465   -4.6820   -0.1356 H         1 <0>         0.0904
     40 H13        -0.5204   -4.6157   -0.7636 H         1 <0>         0.0644
     41 H14         1.2842   -6.7529   -1.6026 H         1 <0>         0.3787
     42 H15         6.4607   -1.0001    2.1439 H         1 <0>         0.1487
     43 H16         8.3229   -2.6068    2.1406 H         1 <0>         0.1379
     44 H17         8.3492   -2.5365   -2.1484 H         1 <0>         0.1372
     45 H18         6.4812   -0.9367   -2.1220 H         1 <0>         0.1475
@<TRIPOS>BOND
     1    1    6 ar
     2    1    2 ar
     3    1   29 1
     4    2    3 ar
     5    2   30 1
     6    3    4 ar
     7    3   31 1
     8    4    5 ar
     9    4   17 1
    10    5    6 ar
    11    5    7 1
    12    6   32 1
    13    7    8 2
    14    7    9 am
    15    9   15 1
    16    9   10 1
    17   10   11 1
    18   10   33 1
    19   10   34 1
    20   11   12 1
    21   11   35 1
    22   11   36 1
    23   12   13 1
    24   12   37 1
    25   12   38 1
    26   13   14 1
    27   13   15 1
    28   13   16 1
    29   15   39 1
    30   15   40 1
    31   16   41 1
    32   17   18 1
    33   18   19 2
    34   18   20 2
    35   18   21 1
    36   21   26 ar
    37   21   22 ar
    38   22   23 ar
    39   22   42 1
    40   23   24 ar
    41   23   43 1
    42   24   25 ar
    43   24   27 1
    44   25   26 ar
    45   25   44 1
    46   26   45 1
    47   27   28 3
@<TRIPOS>MOLECULE
ZINC04945694
   36    38     0     0     0
SMALL
USER_CHARGES

@<TRIPOS>ATOM
      1 C1         -0.0184    1.5028    0.0103 C.3       1 <0>        -0.0989
      2 C2          0.0021   -0.0041    0.0020 C.2       1 <0>        -0.0634
      3 C3          0.0061   -0.7131   -1.1428 C.2       1 <0>        -0.2221
      4 S1          0.0325   -2.4005   -0.5786 S.3       1 <0>         0.3112
      5 C4          0.0375   -2.1571    1.0814 C.2       1 <0>         0.0604
      6 C5          0.0247   -0.7779    1.2216 C.2       1 <0>        -0.1419
      7 C6          0.0284   -0.1524    2.5097 C.1       1 <0>         0.2707
      8 N1          0.0314    0.3438    3.5316 N.1       1 <0>        -0.4260
      9 N2          0.0553   -3.1165    2.0844 N.am      1 <0>        -0.6160
     10 C7          0.0716   -4.4256    1.7644 C.2       1 <0>         0.5345
     11 O1          0.0708   -4.7654    0.6001 O.2       1 <0>        -0.4773
     12 C8          0.0909   -5.4672    2.8533 C.3       1 <0>        -0.1519
     13 S2          0.1099   -7.1209    2.1079 S.3       1 <0>         0.0992
     14 C9          0.1312   -8.2118    3.4914 C.2       1 <0>        -0.0110
     15 N3          0.1272   -7.9010    4.7712 N.2       1 <0>        -0.5415
     16 C10         0.1451   -8.8274    5.7259 C.2       1 <0>         0.3208
     17 C11         0.1681  -10.1410    5.2430 C.2       1 <0>        -0.2549
     18 S3          0.1541   -9.8955    3.4862 S.3       1 <0>         0.2549
     19 C12         0.1890  -11.2426    6.0876 C.2       1 <0>         0.3542
     20 C13         0.1868  -11.0287    7.4608 C.2       1 <0>        -0.4400
     21 C14         0.1638   -9.7164    7.9367 C.2       1 <0>         0.5432
     22 O2          0.1622   -9.5216    9.1426 O.2       1 <0>        -0.6103
     23 N4          0.1434   -8.6641    7.1060 N.am      1 <0>        -0.6116
     24 H1          0.1281   -7.7680    7.4770 H         1 <0>         0.3959
     25 O3          0.2106  -12.5002    5.5836 O.3       1 <0>        -0.6822
     26 C15        -0.0082   -0.2011   -2.5600 C.3       1 <0>        -0.0649
     27 H2          1.0042    1.8801    0.0026 H         1 <0>         0.0748
     28 H3         -0.5455    1.8639   -0.8728 H         1 <0>         0.0763
     29 H4         -0.5286    1.8543    0.9071 H         1 <0>         0.0629
     30 H5          0.0560   -2.8447    3.0155 H         1 <0>         0.4249
     31 H6          0.9821   -5.3350    3.4669 H         1 <0>         0.1339
     32 H7         -0.7977   -5.3592    3.4752 H         1 <0>         0.1339
     33 H8          0.2023  -11.8624    8.1473 H         1 <0>         0.1308
     34 H9          1.0159   -0.0633   -2.9070 H         1 <0>         0.0778
     35 H10        -0.5153   -0.9217   -3.2016 H         1 <0>         0.0743
     36 H11        -0.5356    0.7522   -2.5966 H         1 <0>         0.0791
@<TRIPOS>BOND
     1    1    2 1
     2    1   27 1
     3    1   28 1
     4    1   29 1
     5    2    6 1
     6    2    3 2
     7    3    4 1
     8    3   26 1
     9    4    5 1
    10    5    6 2
    11    5    9 1
    12    6    7 1
    13    7    8 3
    14    9   10 am
    15    9   30 1
    16   10   11 2
    17   10   12 1
    18   12   13 1
    19   12   31 1
    20   12   32 1
    21   13   14 1
    22   14   18 1
    23   14   15 2
    24   15   16 1
    25   16   23 1
    26   16   17 2
    27   17   18 1
    28   17   19 1
    29   19   20 2
    30   19   25 1
    31   20   21 1
    32   20   33 1
    33   21   22 2
    34   21   23 am
    35   23   24 1
    36   26   34 1
    37   26   35 1
    38   26   36 1
@<TRIPOS>MOLECULE
ZINC67363941
   50    52     0     0     0
SMALL
USER_CHARGES

@<TRIPOS>ATOM
      1 C1          0.3433   -1.7048   -1.4567 C.3       1 <0>        -0.1554
      2 C2          1.6411   -0.9196   -1.2567 C.3       1 <0>         0.0891
      3 N1          2.2895   -1.3554   -0.0174 N.pl3     1 <0>        -0.4922
      4 C3          1.9906   -0.7351    1.1445 C.2       1 <0>         0.5019
      5 O1          1.1057    0.2766    1.1780 O.3       1 <0>        -0.6085
      6 C4          2.6304   -1.1760    2.3224 C.ar      1 <0>        -0.2230
      7 C5          2.3712   -0.5818    3.5656 C.ar      1 <0>        -0.0105
      8 C6          3.0081   -1.0353    4.6804 C.ar      1 <0>        -0.1475
      9 C7          3.9254   -2.0948    4.6030 C.ar      1 <0>        -0.0703
     10 C8          4.2016   -2.7014    3.3887 C.ar      1 <0>        -0.1123
     11 C9          3.5557   -2.2486    2.2292 C.ar      1 <0>         0.2144
     12 N2          3.7917   -2.8059    1.0331 N.2       1 <0>        -0.5568
     13 C10         3.1690   -2.3703   -0.0513 C.2       1 <0>         0.5052
     14 S1          3.5022   -3.1231   -1.5524 S.2       1 <0>        -0.7091
     15 C11         4.6048   -2.5684    5.8312 C.2       1 <0>         0.5677
     16 O2          3.9798   -2.6775    6.8676 O.2       1 <0>        -0.5357
     17 N3          5.9160   -2.8782    5.7991 N.am      1 <0>        -0.6063
     18 C12         6.7156   -2.6258    4.5926 C.3       1 <0>         0.0919
     19 C13         7.9414   -1.7921    4.9789 C.3       1 <0>        -0.1340
     20 C14         8.7031   -2.5018    6.1006 C.3       1 <0>        -0.1119
     21 C15         7.8004   -2.6316    7.3296 C.3       1 <0>        -0.1146
     22 H1          7.4796   -1.6410    7.6517 H         1 <0>         0.0831
     23 C16         6.5745   -3.4692    6.9721 C.3       1 <0>         0.1165
     24 C17         8.5737   -3.3110    8.4616 C.3       1 <0>         0.1256
     25 N4          7.7509   -3.3279    9.6736 N.am      1 <0>        -0.7321
     26 C18         8.2299   -3.8806   10.8057 C.2       1 <0>         0.5102
     27 O3          9.3421   -4.3640   10.8210 O.2       1 <0>        -0.5501
     28 C19         7.3835   -3.8979   12.0524 C.3       1 <0>        -0.1742
     29 H2         -0.3244   -1.5239   -0.6143 H         1 <0>         0.0508
     30 H3         -0.1392   -1.3805   -2.3788 H         1 <0>         0.0684
     31 H4          0.5687   -2.7694   -1.5195 H         1 <0>         0.0676
     32 H5          2.3087   -1.1005   -2.0991 H         1 <0>         0.1164
     33 H6          1.4156    0.1450   -1.1938 H         1 <0>         0.0859
     34 H7          1.6679    0.2345    3.6388 H         1 <0>         0.1360
     35 H8          2.8052   -0.5739    5.6356 H         1 <0>         0.1282
     36 H9          4.9086   -3.5161    3.3353 H         1 <0>         0.1392
     37 H10         7.0391   -3.5742    4.1636 H         1 <0>         0.0756
     38 H11         6.1162   -2.0788    3.8648 H         1 <0>         0.1032
     39 H12         8.5924   -1.6791    4.1120 H         1 <0>         0.0817
     40 H13         7.6191   -0.8094    5.3230 H         1 <0>         0.0685
     41 H14         9.0036   -3.4941    5.7642 H         1 <0>         0.0704
     42 H15         9.5893   -1.9228    6.3605 H         1 <0>         0.0699
     43 H16         5.8820   -3.4785    7.8138 H         1 <0>         0.0919
     44 H17         6.8862   -4.4879    6.7415 H         1 <0>         0.0712
     45 H18         8.8165   -4.3337    8.1731 H         1 <0>         0.0712
     46 H19         9.4940   -2.7598    8.6549 H         1 <0>         0.0721
     47 H20         6.8614   -2.9412    9.6614 H         1 <0>         0.4037
     48 H21         6.7883   -4.8108   12.0748 H         1 <0>         0.0943
     49 H22         8.0288   -3.8633   12.9302 H         1 <0>         0.0922
     50 H23         6.7212   -3.0322   12.0540 H         1 <0>         0.0803
@<TRIPOS>BOND
     1    1    2 1
     2    1   29 1
     3    1   30 1
     4    1   31 1
     5    2    3 1
     6    2   32 1
     7    2   33 1
     8    3   13 1
     9    3    4 1
    10    4    5 1
    11    4    6 2
    12    6   11 ar
    13    6    7 ar
    14    7    8 ar
    15    7   34 1
    16    8    9 ar
    17    8   35 1
    18    9   10 ar
    19    9   15 1
    20   10   11 ar
    21   10   36 1
    22   11   12 2
    23   12   13 1
    24   13   14 2
    25   15   16 2
    26   15   17 am
    27   17   23 1
    28   17   18 1
    29   18   19 1
    30   18   37 1
    31   18   38 1
    32   19   20 1
    33   19   39 1
    34   19   40 1
    35   20   21 1
    36   20   41 1
    37   20   42 1
    38   21   22 1
    39   21   23 1
    40   21   24 1
    41   23   43 1
    42   23   44 1
    43   24   25 1
    44   24   45 1
    45   24   46 1
    46   25   26 am
    47   25   47 1
    48   26   27 2
    49   26   28 1
    50   28   48 1
    51   28   49 1
    52   28   50 1
@<TRIPOS>MOLECULE
ZINC22066027
   39    42     0     0     0
SMALL
USER_CHARGES

@<TRIPOS>ATOM
      1 C1          1.6979   -2.6419   -1.4105 C.3       1 <0>        -0.0874
      2 C2          0.7439   -1.7923   -0.6110 C.2       1 <0>         0.1217
      3 C3          0.0759   -0.7138   -1.0850 C.2       1 <0>        -0.1172
      4 C4         -0.7353   -0.1954    0.0277 C.ar      1 <0>        -0.0832
      5 C5         -1.6196    0.8741    0.1645 C.ar      1 <0>        -0.0740
      6 C6         -2.2334    1.0983    1.3649 C.ar      1 <0>        -0.1405
      7 C7         -1.9833    0.2692    2.4496 C.ar      1 <0>        -0.0995
      8 C8         -1.1129   -0.7924    2.3358 C.ar      1 <0>        -0.1266
      9 C9         -0.4777   -1.0386    1.1222 C.ar      1 <0>         0.0960
     10 N1          0.4173   -1.9976    0.7016 N.pl3     1 <0>        -0.5891
     11 H1          0.7667   -2.7129    1.2559 H         1 <0>         0.4172
     12 C10         0.1487   -0.1614   -2.4599 C.2       1 <0>         0.1683
     13 C11         0.3071    1.1772   -2.6890 C.2       1 <0>        -0.2608
     14 S1          0.3212    1.2105   -4.4739 S.3       1 <0>         0.2279
     15 C12         0.1292   -0.4393   -4.7431 C.2       1 <0>         0.2360
     16 N2          0.0689   -0.9419   -3.5303 N.2       1 <0>        -0.5374
     17 N3          0.0575   -1.1101   -5.9566 N.am      1 <0>        -0.6023
     18 C13         0.1453   -0.4229   -7.1127 C.2       1 <0>         0.5716
     19 O1          0.2872    0.7843   -7.0929 O.2       1 <0>        -0.4784
     20 C14         0.0689   -1.1369   -8.4044 C.ar      1 <0>        -0.1378
     21 C15        -0.1004   -2.5266   -8.4408 C.ar      1 <0>        -0.0459
     22 C16        -0.1663   -3.1475   -9.6754 C.ar      1 <0>        -0.1210
     23 C17        -0.0640   -2.3837  -10.8242 C.ar      1 <0>         0.1040
     24 N4          0.0952   -1.0745  -10.7602 N.ar      1 <0>        -0.1229
     25 O2          0.1952   -0.3339  -11.9629 O.3       1 <0>        -0.5329
     26 C18         0.1585   -0.4370   -9.6082 C.ar      1 <0>         0.1413
     27 H2          1.1371   -3.3943   -1.9651 H         1 <0>         0.0837
     28 H3          2.2484   -2.0112   -2.1087 H         1 <0>         0.0816
     29 H4          2.3983   -3.1346   -0.7361 H         1 <0>         0.0667
     30 H5         -1.8185    1.5233   -0.6753 H         1 <0>         0.1215
     31 H6         -2.9179    1.9270    1.4703 H         1 <0>         0.1239
     32 H7         -2.4755    0.4584    3.3921 H         1 <0>         0.1266
     33 H8         -0.9241   -1.4317    3.1856 H         1 <0>         0.1214
     34 H9          0.3982    1.9905   -1.9843 H         1 <0>         0.1962
     35 H10        -0.0558   -2.0733   -5.9724 H         1 <0>         0.4238
     36 H11        -0.1771   -3.0991   -7.5282 H         1 <0>         0.1592
     37 H12        -0.2961   -4.2176   -9.7415 H         1 <0>         0.1769
     38 H13        -0.1149   -2.8661  -11.7891 H         1 <0>         0.1925
     39 H14         0.2850    0.6355   -9.5959 H         1 <0>         0.1990
@<TRIPOS>BOND
     1    1    2 1
     2    1   27 1
     3    1   28 1
     4    1   29 1
     5    2   10 1
     6    2    3 2
     7    3    4 1
     8    3   12 1
     9    4    9 ar
    10    4    5 ar
    11    5    6 ar
    12    5   30 1
    13    6    7 ar
    14    6   31 1
    15    7    8 ar
    16    7   32 1
    17    8    9 ar
    18    8   33 1
    19    9   10 1
    20   10   11 1
    21   12   16 1
    22   12   13 2
    23   13   14 1
    24   13   34 1
    25   14   15 1
    26   15   16 2
    27   15   17 1
    28   17   18 am
    29   17   35 1
    30   18   19 2
    31   18   20 1
    32   20   26 ar
    33   20   21 ar
    34   21   22 ar
    35   21   36 1
    36   22   23 ar
    37   22   37 1
    38   23   24 ar
    39   23   38 1
    40   24   25 1
    41   24   26 ar
    42   26   39 1
@<TRIPOS>MOLECULE
ZINC37433249
   35    36     0     0     0
SMALL
USER_CHARGES

@<TRIPOS>ATOM
      1 C1         -0.0164    1.3618    0.0095 C.2       1 <0>        -0.1170
      2 C2          1.3213    1.7838   -0.0010 C.2       1 <0>        -0.1644
      3 C3          2.0901    0.6705   -0.0143 C.2       1 <0>        -0.0041
      4 O1          1.2909   -0.4045   -0.0124 O.3       1 <0>        -0.1446
      5 C4          0.0021   -0.0041    0.0020 C.2       1 <0>        -0.0488
      6 C5         -1.1721   -0.8811    0.0090 C.2       1 <0>         0.6052
      7 O2         -2.2903   -0.4009    0.0226 O.2       1 <0>        -0.5130
      8 N1         -1.0135   -2.2195    0.0002 N.am      1 <0>        -0.7030
      9 C6         -2.1872   -3.0963    0.0071 C.3       1 <0>         0.0987
     10 C7         -1.7394   -4.5352   -0.0050 C.2       1 <0>         0.5092
     11 O3         -0.5564   -4.8020   -0.0182 O.2       1 <0>        -0.5476
     12 N2         -2.6536   -5.5254   -0.0013 N.am      1 <0>        -0.5956
     13 C8         -4.0903   -5.2179    0.0084 C.3       1 <0>         0.1005
     14 C9         -4.7453   -5.9590    1.1783 C.3       1 <0>        -0.1106
     15 C10        -4.4226   -7.4516    1.0762 C.3       1 <0>        -0.1550
     16 C11        -2.9083   -7.6549    1.1627 C.3       1 <0>        -0.1108
     17 C12        -2.2325   -6.9330   -0.0130 C.3       1 <0>         0.1129
     18 C13        -5.0936   -8.1887    2.2064 C.2       1 <0>         0.4966
     19 O4         -5.6069   -9.2762    2.0053 O.co2     1 <0>        -0.7016
     20 O5         -5.1231   -7.6976    3.3220 O.co2     1 <0>        -0.6960
     21 Br1         3.9807    0.6375   -0.0331 Br        1 <0>         0.0627
     22 H1         -0.8917    1.9943    0.0253 H         1 <0>         0.1724
     23 H2          1.6717    2.8054    0.0008 H         1 <0>         0.1695
     24 H3         -0.1223   -2.6023   -0.0107 H         1 <0>         0.4177
     25 H4         -2.7769   -2.9068    0.9040 H         1 <0>         0.1078
     26 H5         -2.7945   -2.8973   -0.8758 H         1 <0>         0.1050
     27 H6         -4.2333   -4.1442    0.1301 H         1 <0>         0.0812
     28 H7         -4.5403   -5.5447   -0.9290 H         1 <0>         0.0725
     29 H8         -4.3592   -5.5669    2.1192 H         1 <0>         0.0729
     30 H9         -5.8253   -5.8168    1.1401 H         1 <0>         0.0703
     31 H10        -4.7871   -7.8376    0.1242 H         1 <0>         0.0626
     32 H11        -2.5396   -7.2469    2.1038 H         1 <0>         0.0659
     33 H12        -2.6808   -8.7198    1.1134 H         1 <0>         0.0713
     34 H13        -2.5341   -7.3968   -0.9522 H         1 <0>         0.0682
     35 H14        -1.1494   -6.9913    0.0945 H         1 <0>         0.0891
@<TRIPOS>BOND
     1    1    5 2
     2    1    2 1
     3    1   22 1
     4    2    3 2
     5    2   23 1
     6    3    4 1
     7    3   21 1
     8    4    5 1
     9    5    6 1
    10    6    7 2
    11    6    8 am
    12    8    9 1
    13    8   24 1
    14    9   10 1
    15    9   25 1
    16    9   26 1
    17   10   11 2
    18   10   12 am
    19   12   17 1
    20   12   13 1
    21   13   14 1
    22   13   27 1
    23   13   28 1
    24   14   15 1
    25   14   29 1
    26   14   30 1
    27   15   16 1
    28   15   18 1
    29   15   31 1
    30   16   17 1
    31   16   32 1
    32   16   33 1
    33   17   34 1
    34   17   35 1
    35   18   19 2
    36   18   20 1
@<TRIPOS>MOLECULE
ZINC42355016
   27    28     0     0     0
SMALL
USER_CHARGES

@<TRIPOS>ATOM
      1 C1         -0.6321   -6.2870    0.0634 C.2       1 <0>        -0.1652
      2 C2          0.4671   -7.0786    0.0133 C.2       1 <0>        -0.1425
      3 S1          1.7883   -5.8855    0.1487 S.3       1 <0>         0.1899
      4 C3          0.7866   -4.4122    0.2629 C.2       1 <0>        -0.7200
      5 C4         -0.4686   -4.9200    0.1914 C.2       1 <0>        -0.0009
      6 Br1        -1.9725   -3.7760    0.2649 Br        1 <0>        -0.0163
      7 S2          1.2967   -2.7337    0.4273 S.o2      1 <0>         2.7297
      8 O1          0.7554   -2.0339   -0.6847 O.2       1 <0>        -0.9369
      9 O2          1.0255   -2.3565    1.7702 O.2       1 <0>        -0.9007
     10 N1          2.9429   -2.7026    0.2502 N.pl3     1 <0>        -0.9761
     11 C5          3.6682   -2.6452   -1.0320 C.3       1 <0>         0.0925
     12 C6          5.0624   -3.2472   -0.7262 C.3       1 <0>         0.0909
     13 H1          5.0278   -4.3366   -0.7340 H         1 <0>         0.0719
     14 C7          5.3269   -2.7094    0.7049 C.3       1 <0>        -0.0939
     15 C8          3.9231   -2.7214    1.3459 C.3       1 <0>         0.0794
     16 H2          3.7969   -3.6261    1.9407 H         1 <0>         0.0714
     17 C9          3.7432   -1.5038    2.2154 C.2       1 <0>         0.4946
     18 O3          4.2161   -1.4818    3.3390 O.co2     1 <0>        -0.6897
     19 O4          3.1249   -0.5406    1.7953 O.co2     1 <0>        -0.6751
     20 O5          6.0427   -2.7621   -1.6459 O.3       1 <0>        -0.5542
     21 H3         -1.6207   -6.7172   -0.0001 H         1 <0>         0.1524
     22 H4          0.5280   -8.1525   -0.0834 H         1 <0>         0.2024
     23 H5          3.1543   -3.2419   -1.7856 H         1 <0>         0.0688
     24 H6          3.7661   -1.6124   -1.3665 H         1 <0>         0.0838
     25 H7          6.0059   -3.3689    1.2454 H         1 <0>         0.0829
     26 H8          5.7215   -1.6940    0.6685 H         1 <0>         0.0860
     27 H9          5.8645   -2.9918   -2.5681 H         1 <0>         0.3747
@<TRIPOS>BOND
     1    1    5 1
     2    1    2 2
     3    1   21 1
     4    2    3 1
     5    2   22 1
     6    3    4 1
     7    4    5 2
     8    4    7 1
     9    5    6 1
    10    7    8 2
    11    7    9 2
    12    7   10 1
    13   10   15 1
    14   10   11 1
    15   11   12 1
    16   11   23 1
    17   11   24 1
    18   12   13 1
    19   12   14 1
    20   12   20 1
    21   14   15 1
    22   14   25 1
    23   14   26 1
    24   15   16 1
    25   15   17 1
    26   17   18 2
    27   17   19 1
    28   20   27 1
@<TRIPOS>MOLECULE
ZINC40268180
   38    39     0     0     0
SMALL
USER_CHARGES

@<TRIPOS>ATOM
      1 C1         -0.0184    1.5028    0.0103 C.3       1 <0>        -0.0983
      2 C2          0.0021   -0.0041    0.0020 C.ar      1 <0>         0.2121
      3 C3          0.0060   -0.6989   -1.1973 C.ar      1 <0>        -0.2968
      4 C4          0.0255   -2.0843   -1.1603 C.ar      1 <0>         0.2019
      5 N1          0.0397   -2.6984    0.0111 N.ar      1 <0>        -0.5759
      6 C5          0.0354   -2.0044    1.1397 C.ar      1 <0>         0.5599
      7 N2          0.0220   -0.6795    1.1391 N.ar      1 <0>        -0.5041
      8 N3          0.0502   -2.6793    2.3480 N.pl3     1 <0>        -0.6611
      9 C6          0.0458   -1.9290    3.6062 C.3       1 <0>         0.1453
     10 C7          0.1921   -2.8662    4.7918 C.2       1 <0>        -0.4633
     11 C8          1.3778   -2.4798    5.4068 C.2       1 <0>         0.3449
     12 N4          1.9505   -1.4747    4.7815 N.2       1 <0>        -0.6611
     13 C9          1.2802   -1.0550    3.7149 C.2       1 <0>         0.5106
     14 O1          1.5950   -0.1472    2.9702 O.2       1 <0>        -0.4626
     15 C10         1.9391   -3.1343    6.6428 C.3       1 <0>        -0.1068
     16 C11        -0.6640   -3.8787    5.1752 C.2       1 <0>         0.5002
     17 O2         -0.3830   -4.6226    6.2621 O.3       1 <0>        -0.6449
     18 O3         -1.7802   -4.1228    4.4623 O.3       1 <0>        -0.3296
     19 C12        -2.6204   -5.1858    4.9163 C.3       1 <0>         0.0442
     20 C13        -1.2264   -1.0880    3.7289 C.3       1 <0>         0.4509
     21 F1         -2.3445   -1.9287    3.7148 F         1 <0>        -0.1787
     22 F2         -1.1973   -0.3708    4.9298 F         1 <0>        -0.1863
     23 F3         -1.3006   -0.1952    2.6543 F         1 <0>        -0.1548
     24 C14         0.0299   -2.8813   -2.4393 C.3       1 <0>        -0.0989
     25 H1          1.0042    1.8801    0.0026 H         1 <0>         0.0813
     26 H2         -0.5455    1.8639   -0.8728 H         1 <0>         0.0712
     27 H3         -0.5286    1.8543    0.9071 H         1 <0>         0.0797
     28 H4         -0.0062   -0.1722   -2.1401 H         1 <0>         0.1342
     29 H5          0.0634   -3.6492    2.3616 H         1 <0>         0.4197
     30 H6          2.5952   -3.9551    6.3532 H         1 <0>         0.0801
     31 H7          2.5059   -2.4011    7.2166 H         1 <0>         0.0678
     32 H8          1.1221   -3.5200    7.2526 H         1 <0>         0.1005
     33 H9         -2.0593   -6.1202    4.9109 H         1 <0>         0.0520
     34 H10        -2.9609   -4.9723    5.9295 H         1 <0>         0.0519
     35 H11        -3.4821   -5.2756    4.2548 H         1 <0>         0.0843
     36 H12         1.0585   -3.0592   -2.7530 H         1 <0>         0.0789
     37 H13        -0.4698   -3.8359   -2.2743 H         1 <0>         0.0765
     38 H14        -0.4957   -2.3254   -3.2157 H         1 <0>         0.0755
@<TRIPOS>BOND
     1    1    2 1
     2    1   25 1
     3    1   26 1
     4    1   27 1
     5    2    7 ar
     6    2    3 ar
     7    3    4 ar
     8    3   28 1
     9    4    5 ar
    10    4   24 1
    11    5    6 ar
    12    6    7 ar
    13    6    8 1
    14    8    9 1
    15    8   29 1
    16    9   13 1
    17    9   10 1
    18    9   20 1
    19   10   11 1
    20   10   16 2
    21   11   12 2
    22   11   15 1
    23   12   13 1
    24   13   14 2
    25   15   30 1
    26   15   31 1
    27   15   32 1
    28   16   17 1
    29   16   18 1
    30   18   19 1
    31   19   33 1
    32   19   34 1
    33   19   35 1
    34   20   21 1
    35   20   22 1
    36   20   23 1
    37   24   36 1
    38   24   37 1
    39   24   38 1
@<TRIPOS>MOLECULE
ZINC66255058
   34    37     0     0     0
SMALL
USER_CHARGES

@<TRIPOS>ATOM
      1 C1         -0.0168    1.3896    0.0097 C.ar      1 <0>        -0.1054
      2 C2          1.1706    2.0944    0.0021 C.ar      1 <0>        -0.0956
      3 C3          2.3754    1.4203   -0.0135 C.ar      1 <0>        -0.1463
      4 C4          2.4000    0.0329   -0.0212 C.ar      1 <0>        -0.1386
      5 C5          1.2220   -0.6802   -0.0137 C.ar      1 <0>        -0.0607
      6 C6          0.0021   -0.0041    0.0020 C.ar      1 <0>         0.0066
      7 C7         -1.2705   -0.7655    0.0106 C.2       1 <0>         0.1397
      8 C8         -2.4664   -0.1121   -0.0820 C.2       1 <0>        -0.2566
      9 S1         -3.6048   -1.4894   -0.0239 S.3       1 <0>        -0.2186
     10 C9         -2.3831   -2.7862    0.1167 C.2       1 <0>         0.4979
     11 N1         -1.2592   -2.0935    0.1030 N.2       1 <0>        -0.5859
     12 N2         -2.5666   -4.1563    0.2104 N.2       1 <0>        -1.0104
     13 S2         -4.0968   -4.7894    0.1993 S.o2      1 <0>         2.6559
     14 O1         -4.7283   -4.3461    1.3925 O.2       1 <0>        -1.0059
     15 O2         -4.6349   -4.5284   -1.0897 O.2       1 <0>        -1.0116
     16 C10        -3.9376   -6.5390    0.3337 C.2       1 <0>        -0.7618
     17 C11        -3.8193   -7.4091   -0.6958 C.2       1 <0>         0.1763
     18 N3         -3.7216   -8.6506   -0.1760 N.pl3     1 <0>        -0.4723
     19 H1         -3.6261   -9.4742   -0.6794 H         1 <0>         0.4395
     20 N4         -3.7818   -8.5398    1.2192 N.2       1 <0>        -0.3025
     21 C12        -3.9052   -7.2734    1.5237 C.2       1 <0>         0.1374
     22 C13         3.8508   -0.3895   -0.0381 C.3       1 <0>         0.0933
     23 O3          4.5950    0.7679   -0.4604 O.3       1 <0>        -0.3661
     24 C14         3.8107    1.8935   -0.0252 C.3       1 <0>         0.0951
     25 H2         -0.9589    1.9175    0.0260 H         1 <0>         0.1306
     26 H3          1.1568    3.1743    0.0081 H         1 <0>         0.1231
     27 H4          1.2426   -1.7599   -0.0203 H         1 <0>         0.1393
     28 H5         -2.6686    0.9454   -0.1669 H         1 <0>         0.1755
     29 H6         -3.8056   -7.1554   -1.7455 H         1 <0>         0.1936
     30 H7         -3.9735   -6.8657    2.5215 H         1 <0>         0.1971
     31 H8          4.1649   -0.6942    0.9602 H         1 <0>         0.0755
     32 H9          3.9956   -1.2073   -0.7440 H         1 <0>         0.0966
     33 H10         3.9267    2.7238   -0.7217 H         1 <0>         0.0926
     34 H11         4.1140    2.1976    0.9766 H         1 <0>         0.0726
@<TRIPOS>BOND
     1    1    6 ar
     2    1    2 ar
     3    1   25 1
     4    2    3 ar
     5    2   26 1
     6    3   24 1
     7    3    4 ar
     8    4    5 ar
     9    4   22 1
    10    5    6 ar
    11    5   27 1
    12    6    7 1
    13    7   11 1
    14    7    8 2
    15    8    9 1
    16    8   28 1
    17    9   10 1
    18   10   11 2
    19   10   12 1
    20   12   13 1
    21   13   14 2
    22   13   15 2
    23   13   16 1
    24   16   21 1
    25   16   17 2
    26   17   18 1
    27   17   29 1
    28   18   19 1
    29   18   20 1
    30   20   21 2
    31   21   30 1
    32   22   23 1
    33   22   31 1
    34   22   32 1
    35   23   24 1
    36   24   33 1
    37   24   34 1
@<TRIPOS>MOLECULE
ZINC04048224
   33    35     0     0     0
SMALL
USER_CHARGES
5-(1-ethyl-8-methyl-2-quinolylidene)-2-thioxo-thiazolidin-4-one
@<TRIPOS>ATOM
      1 C1         -0.2938    1.0689   -0.0038 C.3       1 <0>        -0.1778
      2 C2         -0.4328    1.4301    1.4764 C.3       1 <0>         0.0504
      3 N1         -0.4992    2.8889    1.6197 N.pl3     1 <0>        -0.4941
      4 C3          0.5696    3.7126    1.8949 C.ar      1 <0>         0.2139
      5 C4          1.8877    3.3202    2.0730 C.ar      1 <0>        -0.1334
      6 C5          2.8775    4.2561    2.3529 C.ar      1 <0>        -0.0792
      7 C6          2.5985    5.6030    2.4635 C.ar      1 <0>        -0.1538
      8 C7          1.3063    6.0295    2.2884 C.ar      1 <0>        -0.0700
      9 C8          0.2959    5.1030    2.0058 C.ar      1 <0>        -0.1247
     10 C9         -1.0635    5.6211    1.8284 C.2       1 <0>        -0.0734
     11 C10        -2.0683    4.7606    1.5543 C.2       1 <0>        -0.1226
     12 C11        -1.7779    3.3924    1.4492 C.2       1 <0>         0.2960
     13 C12        -2.8047    2.4938    1.1645 C.2       1 <0>        -0.3531
     14 C13        -4.2009    2.6746    1.2412 C.2       1 <0>         0.5365
     15 O1         -4.6730    3.7415    1.6000 O.3       1 <0>        -0.5417
     16 N2         -4.9871    1.6633    0.9163 N.2       1 <0>        -0.6514
     17 C14        -4.4648    0.4804    0.5194 C.2       1 <0>         0.3448
     18 S1         -5.2773   -0.9534    0.0558 S.2       1 <0>        -0.6250
     19 S2         -2.7089    0.8019    0.5957 S.3       1 <0>        -0.1008
     20 C15         2.4002    1.9027    1.9907 C.3       1 <0>        -0.1175
     21 H1         -0.2440   -0.0247   -0.1112 H         1 <0>         0.0829
     22 H2          0.6256    1.5191   -0.4063 H         1 <0>         0.0536
     23 H3         -1.1630    1.4526   -0.5580 H         1 <0>         0.0937
     24 H4         -1.3522    0.9799    1.8789 H         1 <0>         0.1310
     25 H5          0.4364    1.0464    2.0307 H         1 <0>         0.0995
     26 H6          3.8921    3.9034    2.4864 H         1 <0>         0.1253
     27 H7          3.3822    6.3113    2.6828 H         1 <0>         0.1272
     28 H8          1.0641    7.0806    2.3683 H         1 <0>         0.1301
     29 H9         -1.2701    6.6979    1.9162 H         1 <0>         0.1445
     30 H10        -3.0929    5.1370    1.4177 H         1 <0>         0.1747
     31 H11         3.4846    1.8936    2.1748 H         1 <0>         0.0723
     32 H12         2.1949    1.4961    0.9894 H         1 <0>         0.0720
     33 H13         1.8945    1.2855    2.7479 H         1 <0>         0.0702
@<TRIPOS>BOND
     1    1    2 1
     2    1   21 1
     3    1   22 1
     4    1   23 1
     5    2    3 1
     6    2   24 1
     7    2   25 1
     8    3   12 1
     9    3    4 1
    10    4    9 ar
    11    4    5 ar
    12    5    6 ar
    13    5   20 1
    14    6    7 ar
    15    6   26 1
    16    7    8 ar
    17    7   27 1
    18    8    9 ar
    19    8   28 1
    20    9   10 1
    21   10   11 2
    22   10   29 1
    23   11   12 1
    24   11   30 1
    25   12   13 2
    26   13   19 1
    27   13   14 1
    28   14   15 1
    29   14   16 2
    30   16   17 1
    31   17   18 2
    32   17   19 1
    33   20   31 1
    34   20   32 1
    35   20   33 1
@<TRIPOS>MOLECULE
ZINC41436305
   20    21     0     0     0
SMALL
USER_CHARGES

@<TRIPOS>ATOM
      1 C1         -0.0165    1.3668    0.0096 C.2       1 <0>        -0.1196
      2 C2          1.1801    2.0448    0.0018 C.2       1 <0>        -0.1310
      3 C3          2.3424    1.3370   -0.0131 C.2       1 <0>        -0.1346
      4 S1          1.7539   -0.3484   -0.0166 S.3       1 <0>         0.1237
      5 C4          0.0021   -0.0041    0.0020 C.2       1 <0>        -0.0811
      6 C5         -1.1304   -0.9486    0.0085 C.ar      1 <0>         0.2802
      7 C6         -0.9046   -2.3313   -0.0013 C.ar      1 <0>        -0.3056
      8 C7         -1.9980   -3.1755    0.0053 C.ar      1 <0>         0.1334
      9 N1         -3.2173   -2.6572    0.0204 N.ar      1 <0>        -0.5501
     10 C8         -3.4024   -1.3465    0.0293 C.ar      1 <0>         0.5600
     11 N2         -2.3871   -0.5006    0.0292 N.ar      1 <0>        -0.5517
     12 O1         -4.6663   -0.8593    0.0447 O.3       1 <0>        -0.6614
     13 C9         -1.8060   -4.6701   -0.0052 C.3       1 <0>         0.5210
     14 F1         -1.7330   -5.1402    1.3105 F         1 <0>        -0.1756
     15 F2         -2.8864   -5.2745   -0.6570 F         1 <0>        -0.1666
     16 F3         -0.6205   -4.9834   -0.6788 F         1 <0>        -0.1762
     17 Cl1         3.9767    1.9225   -0.0261 Cl        1 <0>         0.0078
     18 H1         -0.9532    1.9042    0.0258 H         1 <0>         0.1542
     19 H2          1.1971    3.1246    0.0071 H         1 <0>         0.1426
     20 H3          0.1000   -2.7275   -0.0139 H         1 <0>         0.1305
@<TRIPOS>BOND
     1    1    5 2
     2    1    2 1
     3    1   18 1
     4    2    3 2
     5    2   19 1
     6    3    4 1
     7    3   17 1
     8    4    5 1
     9    5    6 1
    10    6    7 ar
    11    6   11 ar
    12    7    8 ar
    13    7   20 1
    14    8    9 ar
    15    8   13 1
    16    9   10 ar
    17   10   12 1
    18   10   11 ar
    19   13   14 1
    20   13   15 1
    21   13   16 1
@<TRIPOS>MOLECULE
ZINC41990404
   29    30     0     0     0
SMALL
USER_CHARGES

@<TRIPOS>ATOM
      1 C1         -0.0184    1.5028    0.0103 C.3       1 <0>        -0.1058
      2 C2          0.0021   -0.0041    0.0020 C.ar      1 <0>        -0.0874
      3 C3          0.0057   -0.6883   -1.2002 C.ar      1 <0>        -0.1357
      4 C4          0.0244   -2.0709   -1.2126 C.ar      1 <0>        -0.1085
      5 C5          0.0396   -2.7737   -0.0239 C.ar      1 <0>        -0.0936
      6 C6          0.0360   -2.0898    1.1857 C.ar      1 <0>        -0.0436
      7 C7          0.0228   -0.6999    1.1943 C.ar      1 <0>        -0.1117
      8 S1          0.0546   -2.9822    2.7048 S.3       1 <0>        -0.1133
      9 C8          0.0753   -4.7219    2.1916 C.3       1 <0>        -0.1221
     10 C9          0.2291   -5.5973    3.4345 C.3       1 <0>        -0.0905
     11 C10        -1.1669   -5.9693    4.0078 C.3       1 <0>        -0.0561
     12 S2         -2.0809   -6.2575    2.4291 S.3       1 <0>        -0.3166
     13 C11        -1.2070   -5.0152    1.3885 C.3       1 <0>        -0.0272
     14 C12         1.2672   -4.9458    1.2970 C.2       1 <0>         0.5027
     15 O1          2.0253   -4.0236    1.0493 O.co2     1 <0>        -0.6541
     16 O2          1.4734   -6.0491    0.8208 O.co2     1 <0>        -0.6704
     17 H1          1.0042    1.8801    0.0026 H         1 <0>         0.0653
     18 H2         -0.5455    1.8639   -0.8728 H         1 <0>         0.0614
     19 H3         -0.5286    1.8543    0.9071 H         1 <0>         0.0613
     20 H4         -0.0065   -0.1413   -2.1313 H         1 <0>         0.1143
     21 H5          0.0269   -2.6018   -2.1531 H         1 <0>         0.1167
     22 H6          0.0539   -3.8535   -0.0344 H         1 <0>         0.1292
     23 H7          0.0245   -0.1650    2.1325 H         1 <0>         0.1176
     24 H8          0.7647   -6.5089    3.1696 H         1 <0>         0.0980
     25 H9          0.7962   -5.0540    4.1904 H         1 <0>         0.0804
     26 H10        -1.1200   -6.8760    4.6109 H         1 <0>         0.1052
     27 H11        -1.5983   -5.1421    4.5713 H         1 <0>         0.0891
     28 H12        -1.8082   -4.1124    1.2806 H         1 <0>         0.0910
     29 H13        -0.9623   -5.4346    0.4126 H         1 <0>         0.1043
@<TRIPOS>BOND
     1    1    2 1
     2    1   17 1
     3    1   18 1
     4    1   19 1
     5    2    7 ar
     6    2    3 ar
     7    3    4 ar
     8    3   20 1
     9    4    5 ar
    10    4   21 1
    11    5    6 ar
    12    5   22 1
    13    6    7 ar
    14    6    8 1
    15    7   23 1
    16    8    9 1
    17    9   13 1
    18    9   10 1
    19    9   14 1
    20   10   11 1
    21   10   24 1
    22   10   25 1
    23   11   12 1
    24   11   26 1
    25   11   27 1
    26   12   13 1
    27   13   28 1
    28   13   29 1
    29   14   15 2
    30   14   16 1
@<TRIPOS>MOLECULE
ZINC54188464
   30    32     0     0     0
SMALL
USER_CHARGES

@<TRIPOS>ATOM
      1 C1         -0.0167    1.3823    0.0096 C.ar      1 <0>        -0.1158
      2 C2          1.1611    2.0950    0.0022 C.ar      1 <0>        -0.0959
      3 C3          2.3865    1.4192   -0.0131 C.ar      1 <0>        -0.1161
      4 C4          2.4034    0.0147   -0.0209 C.ar      1 <0>         0.1658
      5 C5          1.2021   -0.6874   -0.0132 C.ar      1 <0>         0.0677
      6 C6          0.0021   -0.0041    0.0020 C.ar      1 <0>        -0.1633
      7 F1          1.2096   -2.0384   -0.0205 F         1 <0>        -0.1455
      8 N1          3.6119   -0.6691   -0.0365 N.pl3     1 <0>        -0.6426
      9 C7          4.2512   -1.0241   -1.3124 C.3       1 <0>         0.1680
     10 C8          5.5795   -0.2589   -1.4159 C.3       1 <0>        -0.0553
     11 C9          6.2732   -0.3227   -0.0941 C.2       1 <0>        -0.0238
     12 C10         5.7433   -0.6603    1.1129 C.2       1 <0>        -0.1561
     13 C11         6.6085   -0.6338    2.2056 C.2       1 <0>        -0.1248
     14 C12         7.9055   -0.2906    2.0333 C.2       1 <0>        -0.2140
     15 S1          7.9730    0.0224    0.2758 S.3       1 <0>        -0.0129
     16 C13         4.2728   -1.0427    1.2213 C.3       1 <0>         0.2290
     17 C14         3.6480    2.1746   -0.0216 C.2       1 <0>         0.5126
     18 O1          3.6286    3.3980   -0.0152 O.co2     1 <0>        -0.6947
     19 O2          4.7172    1.5798   -0.0350 O.co2     1 <0>        -0.6412
     20 H1         -0.9610    1.9062    0.0260 H         1 <0>         0.1220
     21 H2          1.1394    3.1747    0.0079 H         1 <0>         0.1300
     22 H3         -0.9279   -0.5532    0.0080 H         1 <0>         0.1235
     23 H4          4.4419   -2.0969   -1.3418 H         1 <0>         0.0478
     24 H5          3.6000   -0.7434   -2.1402 H         1 <0>         0.0654
     25 H6          6.2069   -0.7170   -2.1805 H         1 <0>         0.0541
     26 H7          5.3830    0.7813   -1.6758 H         1 <0>         0.1160
     27 H8          6.2432   -0.8876    3.1897 H         1 <0>         0.1165
     28 H9          8.6947   -0.2226    2.7675 H         1 <0>         0.1728
     29 H10         3.8135   -0.5078    2.0526 H         1 <0>         0.0642
     30 H11         4.1848   -2.1176    1.3794 H         1 <0>         0.0464
@<TRIPOS>BOND
     1    1    6 ar
     2    1    2 ar
     3    1   20 1
     4    2    3 ar
     5    2   21 1
     6    3    4 ar
     7    3   17 1
     8    4    5 ar
     9    4    8 1
    10    5    6 ar
    11    5    7 1
    12    6   22 1
    13    8   16 1
    14    8    9 1
    15    9   10 1
    16    9   23 1
    17    9   24 1
    18   10   11 1
    19   10   25 1
    20   10   26 1
    21   11   15 1
    22   11   12 2
    23   12   13 1
    24   12   16 1
    25   13   14 2
    26   13   27 1
    27   14   15 1
    28   14   28 1
    29   16   29 1
    30   16   30 1
    31   17   18 2
    32   17   19 1
@<TRIPOS>MOLECULE
ZINC62836902
   40    41     0     0     0
SMALL
USER_CHARGES

@<TRIPOS>ATOM
      1 C1         -0.0187    1.5258    0.0104 C.3       1 <0>        -0.1425
      2 C2          0.0021   -0.0041    0.0020 C.3       1 <0>        -0.0872
      3 C3          0.7182   -0.4975   -1.2568 C.3       1 <0>        -0.1127
      4 C4          0.7390   -2.0273   -1.2652 C.3       1 <0>        -0.0781
      5 C5          1.4790   -2.5342   -0.0257 C.3       1 <0>        -0.0814
      6 C6          0.7628   -2.0407    1.2331 C.3       1 <0>        -0.0918
      7 C7          0.7421   -0.5109    1.2415 C.3       1 <0>        -0.1141
      8 C8          1.4994   -4.0410   -0.0340 C.2       1 <0>         0.5005
      9 O1          2.5634   -4.6362   -0.0473 O.co2     1 <0>        -0.6739
     10 O2          0.4519   -4.6649   -0.0273 O.co2     1 <0>        -0.6899
     11 S1          3.1808   -1.9063   -0.0385 S.3       1 <0>        -0.2536
     12 C9          3.9116   -2.5882    1.4752 C.3       1 <0>        -0.0743
     13 C10         5.3669   -2.1301    1.5901 C.3       1 <0>        -0.0707
     14 C11         6.2156   -2.7829    0.4796 C.3       1 <0>        -0.1156
     15 C12         7.5740   -3.0774    1.1631 C.3       1 <0>        -0.1253
     16 C13         7.1519   -3.5172    2.5870 C.3       1 <0>        -0.1232
     17 C14         5.9622   -2.5970    2.9301 C.3       1 <0>        -0.1159
     18 H1          1.0039    1.9031    0.0027 H         1 <0>         0.0531
     19 H2         -0.5459    1.8868   -0.8726 H         1 <0>         0.0484
     20 H3         -0.5289    1.8773    0.9072 H         1 <0>         0.0483
     21 H4         -1.0205   -0.3814    0.0098 H         1 <0>         0.0631
     22 H5          0.1910   -0.1364   -2.1398 H         1 <0>         0.0529
     23 H6          1.7408   -0.1202   -1.2645 H         1 <0>         0.0696
     24 H7         -0.2836   -2.4046   -1.2575 H         1 <0>         0.0718
     25 H8          1.2492   -2.3788   -2.1620 H         1 <0>         0.0588
     26 H9         -0.2598   -2.4180    1.2409 H         1 <0>         0.0681
     27 H10         1.2900   -2.4018    2.1162 H         1 <0>         0.0498
     28 H11         1.7647   -0.1336    1.2338 H         1 <0>         0.0755
     29 H12         0.2319   -0.1594    2.1383 H         1 <0>         0.0500
     30 H13         3.3503   -2.2356    2.3405 H         1 <0>         0.0590
     31 H14         3.8753   -3.6770    1.4377 H         1 <0>         0.1015
     32 H15         5.4233   -1.0442    1.5146 H         1 <0>         0.0685
     33 H16         5.7514   -3.7084    0.1389 H         1 <0>         0.0797
     34 H17         6.3494   -2.0930   -0.3536 H         1 <0>         0.0627
     35 H18         8.0983   -3.8832    0.6494 H         1 <0>         0.0618
     36 H19         8.1892   -2.1785    1.2029 H         1 <0>         0.0600
     37 H20         6.8389   -4.5613    2.5867 H         1 <0>         0.0654
     38 H21         7.9690   -3.3631    3.2918 H         1 <0>         0.0584
     39 H22         6.3083   -1.7377    3.5044 H         1 <0>         0.0594
     40 H23         5.2143   -3.1499    3.4985 H         1 <0>         0.0640
@<TRIPOS>BOND
     1    1    2 1
     2    1   18 1
     3    1   19 1
     4    1   20 1
     5    2    7 1
     6    2    3 1
     7    2   21 1
     8    3    4 1
     9    3   22 1
    10    3   23 1
    11    4    5 1
    12    4   24 1
    13    4   25 1
    14    5    6 1
    15    5    8 1
    16    5   11 1
    17    6    7 1
    18    6   26 1
    19    6   27 1
    20    7   28 1
    21    7   29 1
    22    8    9 2
    23    8   10 1
    24   11   12 1
    25   12   13 1
    26   12   30 1
    27   12   31 1
    28   13   17 1
    29   13   14 1
    30   13   32 1
    31   14   15 1
    32   14   33 1
    33   14   34 1
    34   15   16 1
    35   15   35 1
    36   15   36 1
    37   16   17 1
    38   16   37 1
    39   16   38 1
    40   17   39 1
    41   17   40 1
@<TRIPOS>MOLECULE
ZINC04861716
   43    44     0     0     0
SMALL
USER_CHARGES
1-(azepan-1-yl)-2-(4-ethyl-6-hydroxy-5-methyl-pyrimidin-2-yl)sulfanyl-ethanone
@<TRIPOS>ATOM
      1 C1         -2.2605   -0.3021   10.4033 C.3       1 <0>        -0.1402
      2 C2         -3.4488   -0.4450    9.4503 C.3       1 <0>        -0.0691
      3 C3         -3.1934    0.3630    8.2041 C.ar      1 <0>         0.1767
      4 C4         -3.5957    1.6839    8.1330 C.ar      1 <0>        -0.3030
      5 C5         -3.3401    2.3953    6.9617 C.ar      1 <0>         0.4468
      6 N1         -2.7172    1.7865    5.9600 N.ar      1 <0>        -0.6159
      7 C6         -2.3515    0.5170    6.0641 C.ar      1 <0>         0.3114
      8 N2         -2.5813   -0.1842    7.1653 N.ar      1 <0>        -0.5819
      9 S1         -1.5400   -0.2578    4.7055 S.3       1 <0>         0.0191
     10 C7         -1.5073    1.1197    3.5318 C.3       1 <0>        -0.1374
     11 C8         -0.8382    0.6769    2.2562 C.2       1 <0>         0.5307
     12 O1         -0.4242   -0.4581    2.1509 O.2       1 <0>        -0.5290
     13 N3         -0.7000    1.5424    1.2323 N.am      1 <0>        -0.6011
     14 C9         -0.0401    1.0770   -0.0033 C.3       1 <0>         0.1115
     15 C10        -0.7643    1.5727   -1.2681 C.3       1 <0>        -0.1317
     16 C11        -2.2586    1.4906   -1.0755 C.3       1 <0>        -0.1174
     17 C12        -2.7714    2.8186   -0.5269 C.3       1 <0>        -0.1162
     18 C13        -2.6817    2.9451    0.9359 C.3       1 <0>        -0.1443
     19 C14        -1.2025    2.8882    1.3909 C.3       1 <0>         0.1033
     20 O2         -3.7174    3.6921    6.8493 O.3       1 <0>        -0.6989
     21 C15        -4.2949    2.3399    9.2957 C.3       1 <0>        -0.0658
     22 H1         -2.4470   -0.8918   11.3129 H         1 <0>         0.0530
     23 H2         -2.1319    0.7567   10.6727 H         1 <0>         0.0536
     24 H3         -1.3483   -0.6682    9.9095 H         1 <0>         0.0562
     25 H4         -3.5775   -1.5037    9.1809 H         1 <0>         0.0728
     26 H5         -4.3610   -0.0789    9.9441 H         1 <0>         0.0756
     27 H6         -0.9463    1.9595    3.9677 H         1 <0>         0.1207
     28 H7         -2.5367    1.4402    3.3139 H         1 <0>         0.1212
     29 H8          0.9935    1.4526   -0.0308 H         1 <0>         0.0623
     30 H9         -0.0311   -0.0228   -0.0224 H         1 <0>         0.0915
     31 H10        -0.4827    2.6174   -1.4662 H         1 <0>         0.0656
     32 H11        -0.4758    0.9464   -2.1251 H         1 <0>         0.0743
     33 H12        -2.7417    1.2805   -2.0411 H         1 <0>         0.0614
     34 H13        -2.4930    0.6842   -0.3650 H         1 <0>         0.0670
     35 H14        -2.1854    3.6440   -0.9575 H         1 <0>         0.0592
     36 H15        -3.8309    2.9419   -0.7958 H         1 <0>         0.0583
     37 H16        -3.1166    3.9060    1.2481 H         1 <0>         0.0791
     38 H17        -3.2350    2.1210    1.4098 H         1 <0>         0.0673
     39 H18        -1.1330    3.1832    2.4483 H         1 <0>         0.0889
     40 H19        -0.6039    3.5778    0.7777 H         1 <0>         0.0788
     41 H20        -4.4000    1.6152   10.1166 H         1 <0>         0.0480
     42 H21        -5.2911    2.6821    8.9788 H         1 <0>         0.0484
     43 H22        -3.7038    3.2011    9.6405 H         1 <0>         0.0493
@<TRIPOS>BOND
     1    1    2 1
     2    1   22 1
     3    1   23 1
     4    1   24 1
     5    2   25 1
     6    2   26 1
     7    2    3 1
     8    3    4 ar
     9    3    8 ar
    10    4    5 ar
    11    4   21 1
    12    5    6 ar
    13    5   20 1
    14    6    7 ar
    15    7    8 ar
    16    7    9 1
    17    9   10 1
    18   10   11 1
    19   10   27 1
    20   10   28 1
    21   11   12 2
    22   11   13 am
    23   13   19 1
    24   13   14 1
    25   14   15 1
    26   14   29 1
    27   14   30 1
    28   15   16 1
    29   15   31 1
    30   15   32 1
    31   16   17 1
    32   16   33 1
    33   16   34 1
    34   17   18 1
    35   17   35 1
    36   17   36 1
    37   18   19 1
    38   18   37 1
    39   18   38 1
    40   19   39 1
    41   19   40 1
    42   21   41 1
    43   21   42 1
    44   21   43 1
@<TRIPOS>MOLECULE
ZINC38103917
   32    33     0     0     0
SMALL
USER_CHARGES

@<TRIPOS>ATOM
      1 C1         -0.0184    1.5028    0.0103 C.3       1 <0>        -0.0905
      2 C2          0.0021   -0.0041    0.0020 C.ar      1 <0>        -0.1627
      3 C3          0.0057   -0.6869   -1.2002 C.ar      1 <0>        -0.0909
      4 C4          0.0239   -2.0689   -1.2138 C.ar      1 <0>        -0.2400
      5 C5          0.0392   -2.7738   -0.0191 C.ar      1 <0>         0.2579
      6 C6          0.0360   -2.0849    1.1918 C.ar      1 <0>         0.0673
      7 C7          0.0229   -0.7000    1.1968 C.ar      1 <0>        -0.1671
      8 O1          0.0504   -2.7708    2.3663 O.3       1 <0>        -0.2943
      9 C8          0.0461   -1.9985    3.5686 C.3       1 <0>         0.0291
     10 N1          0.0572   -4.1733   -0.0302 N.2       1 <0>        -1.0681
     11 S1          0.0604   -4.9899   -1.4709 S.o2      1 <0>         2.5936
     12 O2         -1.1916   -4.7271   -2.0895 O.2       1 <0>        -1.0209
     13 O3          1.2988   -4.6949   -2.1022 O.2       1 <0>        -1.0211
     14 C9          0.0846   -6.7109   -1.0942 C.ar      1 <0>        -0.5559
     15 C10         1.2859   -7.3877   -0.9428 C.ar      1 <0>        -0.0733
     16 C11         1.2666   -8.7371   -0.6476 C.ar      1 <0>         0.0960
     17 N2          0.1240   -9.3818   -0.5101 N.ar      1 <0>        -0.4553
     18 C12        -1.0376   -8.7711   -0.6468 C.ar      1 <0>         0.1530
     19 C13        -1.0960   -7.4190   -0.9365 C.ar      1 <0>        -0.0564
     20 Cl1        -2.5090   -9.6721   -0.4543 Cl        1 <0>        -0.0336
     21 H1          1.0042    1.8801    0.0026 H         1 <0>         0.0522
     22 H2         -0.5455    1.8639   -0.8728 H         1 <0>         0.0532
     23 H3         -0.5286    1.8543    0.9071 H         1 <0>         0.0508
     24 H4         -0.0061   -0.1391   -2.1308 H         1 <0>         0.1046
     25 H5          0.0260   -2.5998   -2.1543 H         1 <0>         0.1038
     26 H6          0.0248   -0.1634    2.1341 H         1 <0>         0.1121
     27 H7          0.9280   -1.3583    3.5924 H         1 <0>         0.0417
     28 H8         -0.8518   -1.3813    3.6008 H         1 <0>         0.0418
     29 H9          0.0588   -2.6667    4.4297 H         1 <0>         0.0849
     30 H10         2.2249   -6.8661   -1.0548 H         1 <0>         0.1575
     31 H11         2.1980   -9.2706   -0.5283 H         1 <0>         0.1717
     32 H12        -2.0496   -6.9231   -1.0428 H         1 <0>         0.1587
@<TRIPOS>BOND
     1    1    2 1
     2    1   21 1
     3    1   22 1
     4    1   23 1
     5    2    7 ar
     6    2    3 ar
     7    3    4 ar
     8    3   24 1
     9    4    5 ar
    10    4   25 1
    11    5    6 ar
    12    5   10 1
    13    6    7 ar
    14    6    8 1
    15    7   26 1
    16    8    9 1
    17    9   27 1
    18    9   28 1
    19    9   29 1
    20   10   11 1
    21   11   12 2
    22   11   13 2
    23   11   14 1
    24   14   19 ar
    25   14   15 ar
    26   15   16 ar
    27   15   30 1
    28   16   17 ar
    29   16   31 1
    30   17   18 ar
    31   18   19 ar
    32   18   20 1
    33   19   32 1
@<TRIPOS>MOLECULE
ZINC48653289
   32    33     0     0     0
SMALL
USER_CHARGES

@<TRIPOS>ATOM
      1 C1         -0.0184    1.5028    0.0103 C.3       1 <0>        -0.0790
      2 C2          0.0021   -0.0041    0.0020 C.ar      1 <0>        -0.1503
      3 C3          0.0057   -0.6887   -1.1977 C.ar      1 <0>        -0.0709
      4 C4          0.0244   -2.0709   -1.2068 C.ar      1 <0>        -0.2169
      5 C5          0.0395   -2.7737   -0.0143 C.ar      1 <0>         0.0249
      6 C6          0.0355   -2.0945    1.1892 C.ar      1 <0>        -0.2563
      7 C7          0.0230   -0.7055    1.2007 C.ar      1 <0>         0.2947
      8 N1          0.0256   -0.0156    2.4152 N.2       1 <0>        -1.0809
      9 S1          0.0505   -0.8535    3.8434 S.o2      1 <0>         2.6313
     10 O1         -1.1849   -1.5506    3.9269 O.2       1 <0>        -1.0192
     11 O2          1.3054   -1.5176    3.9028 O.2       1 <0>        -1.0248
     12 C8          0.0474    0.3345    5.1446 C.2       1 <0>        -0.7355
     13 C9          1.1765    0.9086    5.7376 C.2       1 <0>         0.1684
     14 N2          0.7737    1.7417    6.6626 N.2       1 <0>        -0.2891
     15 N3         -0.6268    1.7247    6.6882 N.pl3     1 <0>        -0.3661
     16 C10        -1.0491    0.8579    5.7436 C.2       1 <0>         0.2239
     17 Cl1        -2.7008    0.4786    5.3670 Cl        1 <0>         0.0271
     18 C11        -1.4821    2.5131    7.5787 C.3       1 <0>         0.0922
     19 C12         2.6097    0.6175    5.3743 C.3       1 <0>        -0.1021
     20 Cl2         0.0630   -4.5094   -0.0306 Cl        1 <0>        -0.1098
     21 H1          1.0042    1.8801    0.0026 H         1 <0>         0.0487
     22 H2         -0.5455    1.8639   -0.8728 H         1 <0>         0.0384
     23 H3         -0.5286    1.8543    0.9071 H         1 <0>         0.0727
     24 H4         -0.0064   -0.1433   -2.1298 H         1 <0>         0.1130
     25 H5          0.0269   -2.6036   -2.1463 H         1 <0>         0.1114
     26 H6          0.0470   -2.6428    2.1196 H         1 <0>         0.1083
     27 H7         -1.7165    3.4672    7.1065 H         1 <0>         0.0816
     28 H8         -2.4054    1.9673    7.7729 H         1 <0>         0.0893
     29 H9         -0.9608    2.6915    8.5192 H         1 <0>         0.0960
     30 H10         2.9337    1.3059    4.5936 H         1 <0>         0.0875
     31 H11         3.2404    0.7434    6.2543 H         1 <0>         0.0746
     32 H12         2.6918   -0.4072    5.0120 H         1 <0>         0.1167
@<TRIPOS>BOND
     1    1    2 1
     2    1   21 1
     3    1   22 1
     4    1   23 1
     5    2    7 ar
     6    2    3 ar
     7    3    4 ar
     8    3   24 1
     9    4    5 ar
    10    4   25 1
    11    5    6 ar
    12    5   20 1
    13    6    7 ar
    14    6   26 1
    15    7    8 1
    16    8    9 1
    17    9   10 2
    18    9   11 2
    19    9   12 1
    20   12   16 2
    21   12   13 1
    22   13   14 2
    23   13   19 1
    24   14   15 1
    25   15   16 1
    26   15   18 1
    27   16   17 1
    28   18   27 1
    29   18   28 1
    30   18   29 1
    31   19   30 1
    32   19   31 1
    33   19   32 1
@<TRIPOS>MOLECULE
ZINC55546212
   32    33     0     0     0
SMALL
USER_CHARGES

@<TRIPOS>ATOM
      1 C1         -0.0184    1.5028    0.0103 C.3       1 <0>        -0.1963
      2 C2          0.0021   -0.0041    0.0020 C.2       1 <0>         0.4012
      3 O1          1.0607   -0.5962   -0.0113 O.2       1 <0>        -0.4989
      4 C3         -1.2587   -0.7551    0.0100 C.ar      1 <0>        -0.2940
      5 C4         -2.4826   -0.0731    0.0195 C.ar      1 <0>        -0.0260
      6 C5         -3.6534   -0.7758    0.0265 C.ar      1 <0>        -0.1959
      7 C6         -3.6321   -2.1687    0.0241 C.ar      1 <0>         0.3165
      8 C7         -2.4174   -2.8509    0.0147 C.ar      1 <0>        -0.2830
      9 C8         -1.2420   -2.1560    0.0023 C.ar      1 <0>         0.0051
     10 N1         -4.8253   -2.8795    0.0317 N.2       1 <0>        -1.0751
     11 S1         -4.8028   -4.5353    0.0289 S.o2      1 <0>         2.6024
     12 O2         -4.2556   -4.9320   -1.2210 O.2       1 <0>        -1.0157
     13 O3         -4.2375   -4.9359    1.2696 O.2       1 <0>        -1.0148
     14 C9         -6.4788   -5.0791    0.0403 C.ar      1 <0>        -0.6166
     15 C10        -7.1283   -5.2885    1.2445 C.ar      1 <0>         0.0198
     16 C11        -8.4435   -5.7152    1.2635 C.ar      1 <0>        -0.1325
     17 C12        -9.1184   -5.9351    0.0786 C.ar      1 <0>         0.0414
     18 C13        -8.4684   -5.7251   -1.1405 C.ar      1 <0>        -0.0460
     19 C14        -7.1414   -5.2895   -1.1506 C.ar      1 <0>         0.0386
     20 C15        -9.1610   -5.9508   -2.3734 C.1       1 <0>         0.2571
     21 N2         -9.7105   -6.1298   -3.3514 N.1       1 <0>        -0.4015
     22 Cl1       -10.7693   -6.4714    0.1038 Cl        1 <0>        -0.0502
     23 H1          1.0042    1.8801    0.0026 H         1 <0>         0.0722
     24 H2         -0.5455    1.8639   -0.8728 H         1 <0>         0.0865
     25 H3         -0.5286    1.8543    0.9071 H         1 <0>         0.0866
     26 H4         -2.5000    1.0068    0.0217 H         1 <0>         0.1152
     27 H5         -4.5972   -0.2509    0.0341 H         1 <0>         0.1195
     28 H6         -2.4055   -3.9308    0.0133 H         1 <0>         0.1030
     29 H7         -0.3008   -2.6856   -0.0095 H         1 <0>         0.1141
     30 H8         -6.6052   -5.1181    2.1739 H         1 <0>         0.1575
     31 H9         -8.9439   -5.8773    2.2068 H         1 <0>         0.1520
     32 H10        -6.6342   -5.1213   -2.0892 H         1 <0>         0.1579
@<TRIPOS>BOND
     1    1    2 1
     2    1   23 1
     3    1   24 1
     4    1   25 1
     5    2    3 2
     6    2    4 1
     7    4    9 ar
     8    4    5 ar
     9    5    6 ar
    10    5   26 1
    11    6    7 ar
    12    6   27 1
    13    7    8 ar
    14    7   10 1
    15    8    9 ar
    16    8   28 1
    17    9   29 1
    18   10   11 1
    19   11   12 2
    20   11   13 2
    21   11   14 1
    22   14   19 ar
    23   14   15 ar
    24   15   16 ar
    25   15   30 1
    26   16   17 ar
    27   16   31 1
    28   17   18 ar
    29   17   22 1
    30   18   19 ar
    31   18   20 1
    32   19   32 1
    33   20   21 3
@<TRIPOS>MOLECULE
ZINC66609057
   41    43     0     0     0
SMALL
USER_CHARGES

@<TRIPOS>ATOM
      1 C1          0.0072    1.5771    0.1113 C.3       1 <0>        -0.1490
      2 C2          0.0155    0.0477    0.0704 C.3       1 <0>        -0.1191
      3 C3          0.7576   -0.4912    1.2950 C.3       1 <0>        -0.0173
      4 C4          0.7658   -1.9977    1.2548 C.2       1 <0>         0.1311
      5 N1         -0.1341   -2.7887    1.7668 N.2       1 <0>        -0.2949
      6 N2          0.1822   -4.0154    1.5505 N.2       1 <0>        -0.3450
      7 C5          1.3111   -4.0738    0.8828 C.2       1 <0>         0.3809
      8 N3          1.7161   -2.7875    0.6688 N.pl3     1 <0>        -0.4805
      9 C6          2.9202   -2.3454   -0.0388 C.3       1 <0>         0.1104
     10 C7          4.0609   -2.2233    0.9384 C.2       1 <0>         0.5094
     11 O1          3.8649   -2.3923    2.1234 O.2       1 <0>        -0.4879
     12 N4          5.2987   -1.9262    0.4957 N.am      1 <0>        -0.5541
     13 C8          5.5339   -1.6344   -0.9250 C.3       1 <0>         0.0987
     14 C9          6.7961   -2.3927   -1.3563 C.3       1 <0>        -0.1375
     15 C10         7.9888   -1.8573   -0.5644 C.3       1 <0>        -0.0743
     16 C11         7.6862   -1.8595    0.9108 C.ar      1 <0>        -0.1214
     17 C12         6.3823   -1.8846    1.3840 C.ar      1 <0>         0.1640
     18 C13         6.1364   -1.8754    2.7519 C.ar      1 <0>        -0.1577
     19 C14         7.1902   -1.8374    3.6433 C.ar      1 <0>        -0.1028
     20 C15         8.4901   -1.8094    3.1731 C.ar      1 <0>        -0.1461
     21 C16         8.7384   -1.8290    1.8105 C.ar      1 <0>        -0.1030
     22 S1          2.1428   -5.5353    0.3566 S.3       1 <0>        -0.8136
     23 H1          1.0328    1.9463    0.1062 H         1 <0>         0.0516
     24 H2         -0.5215    1.9611   -0.7611 H         1 <0>         0.0539
     25 H3         -0.4956    1.9136    1.0180 H         1 <0>         0.0562
     26 H4         -1.0100   -0.3215    0.0755 H         1 <0>         0.0705
     27 H5          0.5183   -0.2888   -0.8363 H         1 <0>         0.0572
     28 H6          1.7832   -0.1221    1.2900 H         1 <0>         0.0656
     29 H7          0.2548   -0.1547    2.2017 H         1 <0>         0.0889
     30 H8          3.1774   -3.0734   -0.8083 H         1 <0>         0.1290
     31 H9          2.7340   -1.3768   -0.5028 H         1 <0>         0.1102
     32 H10         4.6818   -1.9692   -1.5166 H         1 <0>         0.0941
     33 H11         5.6817   -0.5633   -1.0624 H         1 <0>         0.0791
     34 H12         6.6705   -3.4562   -1.1530 H         1 <0>         0.0781
     35 H13         6.9673   -2.2405   -2.4219 H         1 <0>         0.0864
     36 H14         8.8583   -2.4866   -0.7542 H         1 <0>         0.0786
     37 H15         8.2057   -0.8386   -0.8856 H         1 <0>         0.0751
     38 H16         5.1205   -1.8975    3.1178 H         1 <0>         0.1743
     39 H17         6.9993   -1.8294    4.7063 H         1 <0>         0.1219
     40 H18         9.3146   -1.7805    3.8701 H         1 <0>         0.1178
     41 H19         9.7554   -1.8068    1.4476 H         1 <0>         0.1213
@<TRIPOS>BOND
     1    1    2 1
     2    1   23 1
     3    1   24 1
     4    1   25 1
     5    2    3 1
     6    2   26 1
     7    2   27 1
     8    3   28 1
     9    3   29 1
    10    3    4 1
    11    4    8 1
    12    4    5 2
    13    5    6 1
    14    6    7 2
    15    7   22 1
    16    7    8 1
    17    8    9 1
    18    9   10 1
    19    9   30 1
    20    9   31 1
    21   10   11 2
    22   10   12 am
    23   12   17 1
    24   12   13 1
    25   13   14 1
    26   13   32 1
    27   13   33 1
    28   14   15 1
    29   14   34 1
    30   14   35 1
    31   15   16 1
    32   15   36 1
    33   15   37 1
    34   16   21 ar
    35   16   17 ar
    36   17   18 ar
    37   18   19 ar
    38   18   38 1
    39   19   20 ar
    40   19   39 1
    41   20   21 ar
    42   20   40 1
    43   21   41 1
@<TRIPOS>MOLECULE
ZINC35115870
   48    50     0     0     0
SMALL
USER_CHARGES

@<TRIPOS>ATOM
      1 C1          2.0425    1.0107    1.7983 C.3       1 <0>        -0.1383
      2 C2          2.0004   -0.5006    1.5635 C.3       1 <0>        -0.0282
      3 C3          3.0680   -1.1802    2.4234 C.3       1 <0>        -0.1387
      4 C4          0.6198   -1.0379    1.9457 C.3       1 <0>        -0.1428
      5 C5          2.2674   -0.7907    0.1090 C.ar      1 <0>        -0.0671
      6 C6          1.3166   -1.4460   -0.6509 C.ar      1 <0>        -0.1149
      7 C7          1.5615   -1.7121   -1.9851 C.ar      1 <0>        -0.1116
      8 C8          2.7569   -1.3223   -2.5596 C.ar      1 <0>        -0.0796
      9 C9          3.7073   -0.6662   -1.7999 C.ar      1 <0>        -0.0856
     10 C10         3.4607   -0.3963   -0.4667 C.ar      1 <0>        -0.1067
     11 C11         3.0243   -1.6132   -4.0138 C.3       1 <0>         0.2218
     12 H1          2.1085   -1.5227   -4.5980 H         1 <0>         0.1174
     13 N1          4.0698   -0.7158   -4.5413 N.am      1 <0>        -0.5926
     14 C12         5.3358   -1.3478   -4.9016 C.3       1 <0>         0.0576
     15 H2          5.9885   -1.3666   -4.0288 H         1 <0>         0.0768
     16 C13         5.1050   -2.8047   -5.4005 C.3       1 <0>        -0.0328
     17 S1          3.7633   -3.2892   -4.2174 S.3       1 <0>        -0.3043
     18 C14         5.9950   -0.5491   -5.9964 C.2       1 <0>         0.5097
     19 O1          7.2107   -0.5245   -6.0855 O.co2     1 <0>        -0.6928
     20 O2          5.3126    0.0724   -6.7930 O.co2     1 <0>        -0.6503
     21 C15         3.8680    0.6093   -4.6826 C.2       1 <0>         0.5503
     22 O3          4.6945    1.2922   -5.2553 O.2       1 <0>        -0.4451
     23 C16         2.6414    1.2322   -4.1411 C.ar      1 <0>        -0.1017
     24 C17         1.5968    0.4326   -3.6741 C.ar      1 <0>        -0.1286
     25 C18         0.4549    1.0194   -3.1694 C.ar      1 <0>        -0.1127
     26 C19         0.3430    2.3978   -3.1253 C.ar      1 <0>        -0.0949
     27 C20         1.3750    3.1971   -3.5866 C.ar      1 <0>        -0.0450
     28 C21         2.5255    2.6218   -4.0893 C.ar      1 <0>        -0.0552
     29 Cl1         1.2253    4.9256   -3.5271 Cl        1 <0>        -0.0741
     30 H3          3.0261    1.3934    1.5261 H         1 <0>         0.0571
     31 H4          1.2819    1.4948    1.1858 H         1 <0>         0.0568
     32 H5          1.8494    1.2204    2.8504 H         1 <0>         0.0557
     33 H6          2.8750   -0.9704    3.4754 H         1 <0>         0.0560
     34 H7          3.0381   -2.2569    2.2561 H         1 <0>         0.0565
     35 H8          4.0516   -0.7974    2.1511 H         1 <0>         0.0573
     36 H9         -0.1408   -0.5538    1.3331 H         1 <0>         0.0587
     37 H10         0.5898   -2.1146    1.7784 H         1 <0>         0.0584
     38 H11         0.4267   -0.8282    2.9977 H         1 <0>         0.0555
     39 H12         0.3827   -1.7505   -0.2021 H         1 <0>         0.1270
     40 H13         0.8190   -2.2247   -2.5787 H         1 <0>         0.1247
     41 H14         4.6414   -0.3620   -2.2486 H         1 <0>         0.1231
     42 H15         4.2016    0.1196    0.1259 H         1 <0>         0.1199
     43 H16         4.7538   -2.8247   -6.4321 H         1 <0>         0.0991
     44 H17         5.9962   -3.4190   -5.2713 H         1 <0>         0.1197
     45 H18         1.6823   -0.6435   -3.7081 H         1 <0>         0.1795
     46 H19        -0.3538    0.4014   -2.8083 H         1 <0>         0.1317
     47 H20        -0.5533    2.8521   -2.7295 H         1 <0>         0.1307
     48 H21         3.3320    3.2459   -4.4449 H         1 <0>         0.1432
@<TRIPOS>BOND
     1    1    2 1
     2    1   30 1
     3    1   31 1
     4    1   32 1
     5    2    3 1
     6    2    4 1
     7    2    5 1
     8    3   33 1
     9    3   34 1
    10    3   35 1
    11    4   36 1
    12    4   37 1
    13    4   38 1
    14    5   10 ar
    15    5    6 ar
    16    6    7 ar
    17    6   39 1
    18    7    8 ar
    19    7   40 1
    20    8    9 ar
    21    8   11 1
    22    9   10 ar
    23    9   41 1
    24   10   42 1
    25   11   12 1
    26   11   17 1
    27   11   13 1
    28   13   14 1
    29   13   21 am
    30   14   15 1
    31   14   16 1
    32   14   18 1
    33   16   17 1
    34   16   43 1
    35   16   44 1
    36   18   19 2
    37   18   20 1
    38   21   22 2
    39   21   23 1
    40   23   28 ar
    41   23   24 ar
    42   24   25 ar
    43   24   45 1
    44   25   26 ar
    45   25   46 1
    46   26   27 ar
    47   26   47 1
    48   27   28 ar
    49   27   29 1
    50   28   48 1
@<TRIPOS>MOLECULE
ZINC38008608
   25    26     0     0     0
SMALL
USER_CHARGES

@<TRIPOS>ATOM
      1 C1         -0.0167    1.3783    0.0096 C.ar      1 <0>        -0.0763
      2 C2          1.1690    2.0868    0.0021 C.ar      1 <0>        -0.1630
      3 C3          2.3814    1.4092   -0.0131 C.ar      1 <0>         0.2802
      4 C4          2.3972    0.0201   -0.0208 C.ar      1 <0>        -0.2306
      5 C5          1.2079   -0.6825   -0.0132 C.ar      1 <0>        -0.0317
      6 C6          0.0021   -0.0041    0.0020 C.ar      1 <0>        -0.1897
      7 I1          1.2299   -2.7774   -0.0247 I         1 <0>        -0.0864
      8 N1          3.5820    2.1229   -0.0212 N.2       1 <0>        -1.0818
      9 S1          5.0264    1.3131   -0.0394 S.o2      1 <0>         2.5964
     10 O1          5.1235    0.6278    1.2016 O.2       1 <0>        -1.0159
     11 O2          5.0992    0.6404   -1.2889 O.2       1 <0>        -1.0160
     12 C7          6.3039    2.5267   -0.0457 C.ar      1 <0>        -0.5595
     13 C8          6.8030    3.0258   -1.2398 C.ar      1 <0>        -0.0737
     14 C9          7.8047    3.9765   -1.2065 C.ar      1 <0>         0.0971
     15 N2          8.2866    4.4094   -0.0575 N.ar      1 <0>        -0.4541
     16 C10         7.8365    3.9576    1.0976 C.ar      1 <0>         0.1535
     17 C11         6.8297    3.0091    1.1421 C.ar      1 <0>        -0.0569
     18 Cl1         8.5096    4.5650    2.5781 Cl        1 <0>        -0.0317
     19 H1         -0.9595    1.9048    0.0260 H         1 <0>         0.1152
     20 H2          1.1535    3.1667    0.0077 H         1 <0>         0.1189
     21 H3          3.3382   -0.5098   -0.0330 H         1 <0>         0.1057
     22 H4         -0.9265   -0.5556    0.0079 H         1 <0>         0.1107
     23 H5          6.4134    2.6751   -2.1841 H         1 <0>         0.1580
     24 H6          8.1982    4.3697   -2.1322 H         1 <0>         0.1727
     25 H7          6.4617    2.6461    2.0904 H         1 <0>         0.1592
@<TRIPOS>BOND
     1    1    6 ar
     2    1    2 ar
     3    1   19 1
     4    2    3 ar
     5    2   20 1
     6    3    4 ar
     7    3    8 1
     8    4    5 ar
     9    4   21 1
    10    5    6 ar
    11    5    7 1
    12    6   22 1
    13    8    9 1
    14    9   10 2
    15    9   11 2
    16    9   12 1
    17   12   17 ar
    18   12   13 ar
    19   13   14 ar
    20   13   23 1
    21   14   15 ar
    22   14   24 1
    23   15   16 ar
    24   16   17 ar
    25   16   18 1
    26   17   25 1
@<TRIPOS>MOLECULE
ZINC48518223
   31    32     0     0     0
SMALL
USER_CHARGES

@<TRIPOS>ATOM
      1 C1         -0.0184    1.5028    0.0103 C.3       1 <0>        -0.1183
      2 C2          0.0021   -0.0041    0.0020 C.ar      1 <0>        -0.0727
      3 C3          0.0058   -0.6878   -1.2006 C.ar      1 <0>        -0.1144
      4 C4          0.0245   -2.0709   -1.2167 C.ar      1 <0>        -0.1209
      5 C5          0.0401   -2.7778   -0.0317 C.ar      1 <0>        -0.0792
      6 C6          0.0369   -2.0950    1.1845 C.ar      1 <0>        -0.0325
      7 C7          0.0228   -0.6992    1.1944 C.ar      1 <0>        -0.0733
      8 I1          0.0260    0.3380    3.0146 I         1 <0>         0.0137
      9 C8          0.0530   -2.8469    2.4588 C.2       1 <0>         0.5102
     10 O1          0.0708   -4.1991    2.4459 O.3       1 <0>        -0.7046
     11 N1          0.0500   -2.2076    3.5908 N.2       1 <0>        -1.0226
     12 S1          0.0681   -3.0491    5.0170 S.o2      1 <0>         2.6702
     13 O2         -1.1678   -3.7463    5.0928 O.2       1 <0>        -0.9976
     14 O3          1.3226   -3.7134    5.0808 O.2       1 <0>        -0.9982
     15 C9          0.0587   -1.8643    6.3211 C.2       1 <0>        -0.6774
     16 C10        -0.9986   -1.3084    6.9618 C.2       1 <0>        -0.0335
     17 C11        -0.7653   -0.3895    7.9677 C.2       1 <0>        -0.1848
     18 C12         0.5139   -0.0716    8.2839 C.2       1 <0>        -0.1391
     19 S2          1.4394   -1.0904    7.1470 S.3       1 <0>         0.1428
     20 C13         1.0228    0.8886    9.3280 C.3       1 <0>        -0.0702
     21 H1          1.0042    1.8801    0.0026 H         1 <0>         0.0712
     22 H2         -0.5455    1.8639   -0.8728 H         1 <0>         0.0642
     23 H3         -0.5286    1.8543    0.9071 H         1 <0>         0.0754
     24 H4         -0.0064   -0.1394   -2.1309 H         1 <0>         0.1225
     25 H5          0.0266   -2.5988   -2.1589 H         1 <0>         0.1239
     26 H6          0.0543   -3.8576   -0.0459 H         1 <0>         0.1369
     27 H7         -2.0082   -1.5790    6.6900 H         1 <0>         0.1415
     28 H8         -1.5899    0.0685    8.4937 H         1 <0>         0.1333
     29 H9          1.1639    0.3593   10.2703 H         1 <0>         0.0793
     30 H10         1.9738    1.3096    9.0017 H         1 <0>         0.0745
     31 H11         0.2987    1.6914    9.4671 H         1 <0>         0.0798
@<TRIPOS>BOND
     1    1    2 1
     2    1   21 1
     3    1   22 1
     4    1   23 1
     5    2    7 ar
     6    2    3 ar
     7    3    4 ar
     8    3   24 1
     9    4    5 ar
    10    4   25 1
    11    5    6 ar
    12    5   26 1
    13    6    7 ar
    14    6    9 1
    15    7    8 1
    16    9   10 1
    17    9   11 2
    18   11   12 1
    19   12   13 2
    20   12   14 2
    21   12   15 1
    22   15   19 1
    23   15   16 2
    24   16   17 1
    25   16   27 1
    26   17   18 2
    27   17   28 1
    28   18   19 1
    29   18   20 1
    30   20   29 1
    31   20   30 1
    32   20   31 1
@<TRIPOS>MOLECULE
ZINC59109286
   51    54     0     0     0
SMALL
USER_CHARGES

@<TRIPOS>ATOM
      1 C1          1.2617    1.4853   -0.5632 C.3       1 <0>        -0.0762
      2 C2          0.8280    0.0511   -0.4016 C.2       1 <0>        -0.0158
      3 C3          0.7410   -0.8506   -1.3925 C.2       1 <0>        -0.0877
      4 C4          0.2819   -2.1032   -0.7736 C.2       1 <0>        -0.2027
      5 C5          0.1318   -1.8236    0.5778 C.2       1 <0>         0.1003
      6 N1          0.4671   -0.5375    0.7771 N.pl3     1 <0>        -0.4295
      7 C6          0.4449    0.1395    2.0761 C.3       1 <0>         0.0921
      8 C7         -0.9338    0.7630    2.3028 C.3       1 <0>         0.0641
      9 H1         -1.1892    1.4103    1.4638 H         1 <0>         0.0874
     10 C8         -0.9300    1.5803    3.6126 C.3       1 <0>        -0.1485
     11 C9         -2.3301    1.2613    4.2041 C.3       1 <0>        -0.1547
     12 C10        -2.5166   -0.2063    3.7435 C.3       1 <0>         0.0452
     13 O1         -1.9177   -0.2692    2.4374 O.3       1 <0>        -0.3626
     14 C11        -0.3224   -2.7943    1.6373 C.3       1 <0>        -0.0944
     15 C12         0.0427   -3.3374   -1.4214 C.2       1 <0>         0.1357
     16 C13        -0.6520   -3.3676   -2.6230 C.2       1 <0>        -0.2830
     17 C14        -0.7564   -4.5991   -3.4193 C.2       1 <0>         0.4997
     18 O2         -0.1750   -5.7436   -3.0006 O.3       1 <0>        -0.6014
     19 N2         -1.4328   -4.5604   -4.5543 N.2       1 <0>        -0.5982
     20 C15        -2.0162   -3.4477   -4.9915 C.2       1 <0>         0.5505
     21 S1         -2.8675   -3.5098   -6.4755 S.2       1 <0>        -0.6726
     22 N3         -1.9743   -2.2801   -4.3332 N.am      1 <0>        -0.5124
     23 C16        -1.3237   -2.1671   -3.1553 C.2       1 <0>         0.5553
     24 O3         -1.2894   -1.1090   -2.5548 O.2       1 <0>        -0.4803
     25 C17        -2.6211   -1.1602   -4.8739 C.ar      1 <0>         0.1330
     26 C18        -3.9447   -0.8971   -4.5492 C.ar      1 <0>        -0.0642
     27 C19        -4.5796    0.2073   -5.0835 C.ar      1 <0>        -0.1236
     28 C20        -3.8989    1.0511   -5.9419 C.ar      1 <0>        -0.0912
     29 C21        -2.5805    0.7932   -6.2688 C.ar      1 <0>        -0.1507
     30 C22        -1.9365   -0.3071   -5.7322 C.ar      1 <0>         0.1243
     31 F1         -0.6463   -0.5558   -6.0464 F         1 <0>        -0.1339
     32 H2          2.3428    1.5538   -0.4416 H         1 <0>         0.0638
     33 H3          0.9846    1.8389   -1.5563 H         1 <0>         0.0777
     34 H4          0.7715    2.1004    0.1914 H         1 <0>         0.0560
     35 H5          0.9634   -0.6882   -2.4368 H         1 <0>         0.1334
     36 H6          0.6513   -0.5828    2.8659 H         1 <0>         0.0917
     37 H7          1.2042    0.9214    2.0913 H         1 <0>         0.0982
     38 H8         -0.1395    1.2386    4.2808 H         1 <0>         0.0802
     39 H9         -0.8302    2.6456    3.4048 H         1 <0>         0.0857
     40 H10        -2.3229    1.3338    5.2917 H         1 <0>         0.0843
     41 H11        -3.0949    1.9081    3.7742 H         1 <0>         0.0798
     42 H12        -2.0068   -0.8851    4.4273 H         1 <0>         0.0606
     43 H13        -3.5768   -0.4527    3.6850 H         1 <0>         0.0869
     44 H14         0.5441   -3.3040    2.0585 H         1 <0>         0.0719
     45 H15        -0.8445   -2.2530    2.4262 H         1 <0>         0.0783
     46 H16        -0.9952   -3.5280    1.1934 H         1 <0>         0.0809
     47 H17         0.4005   -4.2565   -0.9813 H         1 <0>         0.1432
     48 H18        -4.4779   -1.5556   -3.8795 H         1 <0>         0.1274
     49 H19        -5.6095    0.4118   -4.8307 H         1 <0>         0.1299
     50 H20        -4.3983    1.9135   -6.3581 H         1 <0>         0.1308
     51 H21        -2.0517    1.4538   -6.9400 H         1 <0>         0.1353
@<TRIPOS>BOND
     1    1    2 1
     2    1   32 1
     3    1   33 1
     4    1   34 1
     5    2    6 1
     6    2    3 2
     7    3    4 1
     8    3   35 1
     9    4    5 2
    10    4   15 1
    11    5    6 1
    12    5   14 1
    13    6    7 1
    14    7    8 1
    15    7   36 1
    16    7   37 1
    17    8    9 1
    18    8   13 1
    19    8   10 1
    20   10   11 1
    21   10   38 1
    22   10   39 1
    23   11   12 1
    24   11   40 1
    25   11   41 1
    26   12   13 1
    27   12   42 1
    28   12   43 1
    29   14   44 1
    30   14   45 1
    31   14   46 1
    32   15   16 2
    33   15   47 1
    34   16   23 1
    35   16   17 1
    36   17   18 1
    37   17   19 2
    38   19   20 1
    39   20   21 2
    40   20   22 1
    41   22   23 am
    42   22   25 1
    43   23   24 2
    44   25   30 ar
    45   25   26 ar
    46   26   27 ar
    47   26   48 1
    48   27   28 ar
    49   27   49 1
    50   28   29 ar
    51   28   50 1
    52   29   30 ar
    53   29   51 1
    54   30   31 1
@<TRIPOS>MOLECULE
ZINC67634953
   34    35     0     0     0
SMALL
USER_CHARGES

@<TRIPOS>ATOM
      1 C1         -0.0167    1.3778    0.0096 C.ar      1 <0>        -0.1400
      2 C2          1.1711    2.0855    0.0021 C.ar      1 <0>        -0.0044
      3 C3          2.3775    1.4112   -0.0130 C.ar      1 <0>        -0.6228
      4 C4          2.3969    0.0289   -0.0206 C.ar      1 <0>         0.0114
      5 C5          1.2092   -0.6791   -0.0130 C.ar      1 <0>        -0.1250
      6 C6          0.0021   -0.0041    0.0020 C.ar      1 <0>        -0.0487
      7 I1          1.2381   -2.7739   -0.0252 I         1 <0>        -0.0461
      8 S1          3.8910    2.3134   -0.0232 S.o2      1 <0>         2.6378
      9 O1          4.8721    1.4545   -0.5879 O.2       1 <0>        -1.0044
     10 O2          3.5968    3.5938   -0.5648 O.2       1 <0>        -1.0039
     11 N1          4.3269    2.5562    1.5558 N.2       1 <0>        -1.0465
     12 C7          5.4104    3.1992    1.8345 C.2       1 <0>         0.4867
     13 O3          6.1882    3.6736    0.8393 O.3       1 <0>        -0.7308
     14 C8          5.8071    3.4201    3.2714 C.3       1 <0>        -0.0774
     15 C9          4.7619    2.7871    4.1922 C.3       1 <0>        -0.0702
     16 C10         3.4290    3.5563    4.0859 C.3       1 <0>        -0.1028
     17 C11         2.8691    3.5474    5.5301 C.3       1 <0>        -0.1295
     18 C12         4.1436    3.7267    6.3918 C.3       1 <0>        -0.1227
     19 C13         5.2163    2.8955    5.6583 C.3       1 <0>        -0.1262
     20 H1         -0.9591    1.9049    0.0259 H         1 <0>         0.1359
     21 H2          1.1562    3.1653    0.0076 H         1 <0>         0.1438
     22 H3          3.3396   -0.4980   -0.0327 H         1 <0>         0.1425
     23 H4         -0.9257   -0.5568    0.0082 H         1 <0>         0.1306
     24 H5          6.7786    2.9611    3.4549 H         1 <0>         0.0758
     25 H6          5.8672    4.4900    3.4714 H         1 <0>         0.0764
     26 H7          4.6128    1.7413    3.9238 H         1 <0>         0.0810
     27 H8          3.6041    4.5787    3.7510 H         1 <0>         0.0561
     28 H9          2.7457    3.0438    3.4087 H         1 <0>         0.0777
     29 H10         2.1798    4.3780    5.6823 H         1 <0>         0.0557
     30 H11         2.3843    2.5964    5.7506 H         1 <0>         0.0601
     31 H12         4.4341    4.7766    6.4293 H         1 <0>         0.0597
     32 H13         3.9818    3.3386    7.3975 H         1 <0>         0.0541
     33 H14         5.2868    1.9022    6.1017 H         1 <0>         0.0566
     34 H15         6.1814    3.3990    5.7139 H         1 <0>         0.0596
@<TRIPOS>BOND
     1    1    6 ar
     2    1    2 ar
     3    1   20 1
     4    2    3 ar
     5    2   21 1
     6    3    4 ar
     7    3    8 1
     8    4    5 ar
     9    4   22 1
    10    5    6 ar
    11    5    7 1
    12    6   23 1
    13    8    9 2
    14    8   10 2
    15    8   11 1
    16   11   12 2
    17   12   13 1
    18   12   14 1
    19   14   15 1
    20   14   24 1
    21   14   25 1
    22   15   19 1
    23   15   16 1
    24   15   26 1
    25   16   17 1
    26   16   27 1
    27   16   28 1
    28   17   18 1
    29   17   29 1
    30   17   30 1
    31   18   19 1
    32   18   31 1
    33   18   32 1
    34   19   33 1
    35   19   34 1
@<TRIPOS>MOLECULE
ZINC19852494
   45    47     0     0     0
SMALL
USER_CHARGES
(8R,8aR)-6-amino-8-[2-(difluoromethoxy)phenyl]-2-methyl-1,3,8,8a-tetrahydroisoquinoline-5,7,7-tricarbonitrile
@<TRIPOS>ATOM
      1 C1          0.1110    0.0352   -0.2009 C.3       1 <0>         0.0213
      2 N1          0.0637    1.5018   -0.1321 N.3       1 <0>        -0.5304
      3 C2         -0.6856    2.0601   -1.2716 C.3       1 <0>         0.0789
      4 C3         -0.8291    3.5442   -1.0429 C.2       1 <0>        -0.1356
      5 C4          0.1173    4.2117   -0.4095 C.2       1 <0>        -0.0427
      6 C5          1.3913    3.5737    0.0656 C.3       1 <0>        -0.0353
      7 H1          2.2025    3.9231   -0.5901 H         1 <0>         0.0885
      8 C6          1.4142    2.0693   -0.0878 C.3       1 <0>         0.0569
      9 C7          1.6267    4.0026    1.5151 C.3       1 <0>        -0.0112
     10 H2          0.7722    3.7081    2.1421 H         1 <0>         0.1367
     11 C8          1.8154    5.5193    1.5595 C.3       1 <0>         0.2094
     12 C9          0.7142    6.2369    0.8389 C.2       1 <0>         0.2566
     13 C10        -0.0804    5.6480   -0.0908 C.2       1 <0>        -0.1426
     14 C11        -1.0978    6.4040   -0.7570 C.1       1 <0>         0.2672
     15 N2         -1.9050    7.0037   -1.2856 N.1       1 <0>        -0.4312
     16 N3          0.4991    7.5540    1.1332 N.pl3     1 <0>        -0.8625
     17 C12         3.1023    5.8617    0.9322 C.1       1 <0>         0.2044
     18 N4          4.0954    6.1260    0.4480 N.1       1 <0>        -0.3572
     19 C13         1.8351    5.9579    2.9645 C.1       1 <0>         0.1957
     20 N5          1.8503    6.2963    4.0488 N.1       1 <0>        -0.3511
     21 C14         2.8629    3.3247    2.0474 C.ar      1 <0>        -0.1187
     22 C15         4.0502    3.4014    1.3449 C.ar      1 <0>        -0.0870
     23 C16         5.1849    2.7806    1.8331 C.ar      1 <0>        -0.1346
     24 C17         5.1346    2.0810    3.0249 C.ar      1 <0>        -0.0707
     25 C18         3.9499    2.0006    3.7304 C.ar      1 <0>        -0.1871
     26 C19         2.8112    2.6281    3.2457 C.ar      1 <0>         0.1275
     27 O1          1.6459    2.5559    3.9413 O.3       1 <0>        -0.3139
     28 C20         1.6665    1.8217    5.1671 C.3       1 <0>         0.4091
     29 F1          2.0341    0.4964    4.9108 F         1 <0>        -0.1962
     30 F2          2.5914    2.4013    6.0423 F         1 <0>        -0.1975
     31 H3         -0.9137   -0.3636   -0.2330 H         1 <0>         0.0730
     32 H4          0.6295   -0.3569    0.6865 H         1 <0>         0.0712
     33 H5          0.6526   -0.2720   -1.1077 H         1 <0>         0.0276
     34 H6         -0.1330    1.8682   -2.2032 H         1 <0>         0.0513
     35 H7         -1.6757    1.5842   -1.3279 H         1 <0>         0.0906
     36 H8         -1.7247    4.0702   -1.4052 H         1 <0>         0.1200
     37 H9          1.9623    1.6451    0.7664 H         1 <0>         0.0902
     38 H10         1.9445    1.8270   -1.0206 H         1 <0>         0.0438
     39 H11        -0.3014    8.1083    0.6214 H         1 <0>         0.4365
     40 H12         1.1265    8.0599    1.8819 H         1 <0>         0.4256
     41 H13         4.0920    3.9472    0.4139 H         1 <0>         0.1341
     42 H14         6.1122    2.8423    1.2829 H         1 <0>         0.1316
     43 H15         6.0224    1.5969    3.4042 H         1 <0>         0.1329
     44 H16         3.9111    1.4539    4.6610 H         1 <0>         0.1377
     45 H17         0.6738    1.8307    5.6408 H         1 <0>         0.1872
@<TRIPOS>BOND
     1    1    2 1
     2    1   31 1
     3    1   32 1
     4    1   33 1
     5    2    8 1
     6    2    3 1
     7    3    4 1
     8    3   34 1
     9    3   35 1
    10    4    5 2
    11    4   36 1
    12    5   13 1
    13    5    6 1
    14    6    7 1
    15    6    8 1
    16    6    9 1
    17    8   37 1
    18    8   38 1
    19    9   10 1
    20    9   11 1
    21    9   21 1
    22   11   12 1
    23   11   17 1
    24   11   19 1
    25   12   13 2
    26   12   16 1
    27   13   14 1
    28   14   15 3
    29   16   39 1
    30   16   40 1
    31   17   18 3
    32   19   20 3
    33   21   26 ar
    34   21   22 ar
    35   22   23 ar
    36   22   41 1
    37   23   24 ar
    38   23   42 1
    39   24   25 ar
    40   24   43 1
    41   25   26 ar
    42   25   44 1
    43   26   27 1
    44   27   28 1
    45   28   29 1
    46   28   30 1
    47   28   45 1
@<TRIPOS>MOLECULE
ZINC42733963
   56    59     0     0     0
SMALL
USER_CHARGES

@<TRIPOS>ATOM
      1 C1         -0.5186    0.9548    0.0218 C.3       1 <0>        -0.1628
      2 C2         -0.2406   -0.5493   -0.0112 C.3       1 <0>         0.1332
      3 H1          0.3312   -0.7957   -0.9059 H         1 <0>         0.1026
      4 C3         -1.5665   -1.3166   -0.0217 C.3       1 <0>        -0.1278
      5 C4         -2.3029   -1.0726    1.2975 C.3       1 <0>        -0.1036
      6 C5         -1.4542   -1.5908    2.4608 C.3       1 <0>        -0.1227
      7 H2         -1.2580   -2.6541    2.3226 H         1 <0>         0.0983
      8 C6         -0.1270   -0.8267    2.4995 C.3       1 <0>         0.0789
      9 N1          0.5230   -0.9354    1.1832 N.am      1 <0>        -0.5908
     10 C7          1.7899   -1.3819    1.0736 C.2       1 <0>         0.6094
     11 O1          2.2741   -1.5740   -0.0255 O.2       1 <0>        -0.5391
     12 C8          2.5886   -1.6372    2.2854 C.2       1 <0>        -0.0560
     13 C9          3.8998   -2.0049    2.3207 C.2       1 <0>         0.0869
     14 N2          4.2421   -2.1487    3.6223 N.pl3     1 <0>        -0.4370
     15 C10         3.1392   -1.8492    4.3704 C.2       1 <0>         0.2473
     16 N3          2.1536   -1.5431    3.5606 N.2       1 <0>        -0.4484
     17 C11         3.0693   -1.8622    5.8483 C.ar      1 <0>        -0.0154
     18 C12         4.0251   -2.5584    6.5886 C.ar      1 <0>        -0.1214
     19 C13         3.9548   -2.5662    7.9665 C.ar      1 <0>        -0.1135
     20 C14         2.9392   -1.8856    8.6141 C.ar      1 <0>        -0.1075
     21 C15         1.9884   -1.1932    7.8857 C.ar      1 <0>        -0.1145
     22 C16         2.0508   -1.1734    6.5074 C.ar      1 <0>        -0.0816
     23 C17         5.5523   -2.5646    4.1308 C.3       1 <0>         0.0921
     24 C18         6.6394   -2.1584    3.1333 C.3       1 <0>        -0.1425
     25 C19         6.8535   -3.2787    2.1164 C.3       1 <0>        -0.1258
     26 C20         5.5735   -3.5320    1.3259 C.3       1 <0>        -0.1226
     27 C21         4.8165   -2.2129    1.1440 C.3       1 <0>        -0.0687
     28 C22        -2.1945   -1.3802    3.7565 C.2       1 <0>         0.5275
     29 O2         -3.2930   -0.8662    3.7506 O.2       1 <0>        -0.5404
     30 N4         -1.6359   -1.7630    4.9217 N.am      1 <0>        -0.8536
     31 H3          0.4259    1.4987    0.0343 H         1 <0>         0.0576
     32 H4         -1.0895    1.2383   -0.8625 H         1 <0>         0.0699
     33 H5         -1.0904    1.1991    0.9171 H         1 <0>         0.0616
     34 H6         -2.1817   -0.9685   -0.8515 H         1 <0>         0.0811
     35 H7         -1.3692   -2.3824   -0.1365 H         1 <0>         0.0679
     36 H8         -2.4780   -0.0041    1.4235 H         1 <0>         0.0751
     37 H9         -3.2580   -1.5976    1.2827 H         1 <0>         0.0728
     38 H10        -0.3158    0.2223    2.7277 H         1 <0>         0.0650
     39 H11         0.5209   -1.2580    3.2626 H         1 <0>         0.1570
     40 H12         4.8182   -3.0905    6.0842 H         1 <0>         0.1279
     41 H13         4.6938   -3.1051    8.5408 H         1 <0>         0.1286
     42 H14         2.8883   -1.8950    9.6929 H         1 <0>         0.1272
     43 H15         1.1981   -0.6638    8.3970 H         1 <0>         0.1306
     44 H16         1.3104   -0.6292    5.9400 H         1 <0>         0.1340
     45 H17         5.7401   -2.0813    5.0895 H         1 <0>         0.1040
     46 H18         5.5647   -3.6467    4.2609 H         1 <0>         0.0930
     47 H19         6.3333   -1.2507    2.6133 H         1 <0>         0.0831
     48 H20         7.5706   -1.9719    3.6682 H         1 <0>         0.0891
     49 H21         7.6510   -2.9947    1.4297 H         1 <0>         0.0738
     50 H22         7.1403   -4.1908    2.6398 H         1 <0>         0.0686
     51 H23         5.8255   -3.9441    0.3487 H         1 <0>         0.0788
     52 H24         4.9458   -4.2395    1.8677 H         1 <0>         0.0625
     53 H25         4.2288   -2.2533    0.2269 H         1 <0>         0.1192
     54 H26         5.5281   -1.3893    1.0863 H         1 <0>         0.0867
     55 H27        -0.7573   -2.1741    4.9264 H         1 <0>         0.4030
     56 H28        -2.1124   -1.6275    5.7557 H         1 <0>         0.4011
@<TRIPOS>BOND
     1    1    2 1
     2    1   31 1
     3    1   32 1
     4    1   33 1
     5    2    3 1
     6    2    9 1
     7    2    4 1
     8    4    5 1
     9    4   34 1
    10    4   35 1
    11    5    6 1
    12    5   36 1
    13    5   37 1
    14    6    7 1
    15    6    8 1
    16    6   28 1
    17    8    9 1
    18    8   38 1
    19    8   39 1
    20    9   10 am
    21   10   11 2
    22   10   12 1
    23   12   16 1
    24   12   13 2
    25   13   27 1
    26   13   14 1
    27   14   15 1
    28   14   23 1
    29   15   16 2
    30   15   17 1
    31   17   22 ar
    32   17   18 ar
    33   18   19 ar
    34   18   40 1
    35   19   20 ar
    36   19   41 1
    37   20   21 ar
    38   20   42 1
    39   21   22 ar
    40   21   43 1
    41   22   44 1
    42   23   24 1
    43   23   45 1
    44   23   46 1
    45   24   25 1
    46   24   47 1
    47   24   48 1
    48   25   26 1
    49   25   49 1
    50   25   50 1
    51   26   27 1
    52   26   51 1
    53   26   52 1
    54   27   53 1
    55   27   54 1
    56   28   29 2
    57   28   30 am
    58   30   55 1
    59   30   56 1
@<TRIPOS>MOLECULE
ZINC51587133
   44    46     0     0     0
SMALL
USER_CHARGES

@<TRIPOS>ATOM
      1 C1          0.2526    3.3067   -0.8945 C.3       1 <0>        -0.0921
      2 C2          0.8966    1.9637   -0.6646 C.2       1 <0>         0.1522
      3 C3          0.9831    1.0213   -1.6656 C.2       1 <0>        -0.2849
      4 S1          1.8173   -0.2990   -0.7995 S.3       1 <0>         0.1434
      5 C4          1.9635    0.4611    0.6951 C.2       1 <0>         0.0563
      6 N1          1.4076    1.6346    0.4957 N.2       1 <0>        -0.5206
      7 C5          0.5188    1.0845   -3.0555 C.2       1 <0>         0.6155
      8 O1         -0.0371    2.0859   -3.4664 O.2       1 <0>        -0.5144
      9 N2          0.7080    0.0333   -3.8776 N.am      1 <0>        -0.7219
     10 C6          0.2443    0.0964   -5.2659 C.3       1 <0>         0.1479
     11 C7          1.3092    0.7774   -6.1286 C.3       1 <0>        -0.1467
     12 C8          0.8065    0.8727   -7.5726 C.3       1 <0>         0.1313
     13 N3          0.4271   -0.4707   -8.0308 N.am      1 <0>        -0.6231
     14 C9         -0.5227   -1.2500   -7.2251 C.3       1 <0>         0.1132
     15 C10        -0.0051   -1.3215   -5.7850 C.3       1 <0>        -0.1446
     16 C11         0.9404   -0.9784   -9.1690 C.2       1 <0>         0.7091
     17 O2          1.6597   -0.2933   -9.8701 O.2       1 <0>        -0.5610
     18 N4          0.6562   -2.2455   -9.5299 N.am      1 <0>        -0.6846
     19 C12         1.3038   -2.8221  -10.6283 C.ar      1 <0>         0.2280
     20 C13         2.6186   -2.4823  -10.9171 C.ar      1 <0>        -0.1692
     21 C14         3.2571   -3.0534  -12.0035 C.ar      1 <0>         0.1556
     22 C15         2.5856   -3.9633  -12.8026 C.ar      1 <0>        -0.2098
     23 C16         1.2743   -4.3035  -12.5163 C.ar      1 <0>         0.1555
     24 C17         0.6342   -3.7390  -11.4274 C.ar      1 <0>        -0.1967
     25 F1          0.6211   -5.1912  -13.2977 F         1 <0>        -0.1260
     26 F2          4.5364   -2.7228  -12.2851 F         1 <0>        -0.1252
     27 H1          1.0048    4.0159   -1.2398 H         1 <0>         0.0831
     28 H2         -0.5292    3.2106   -1.6479 H         1 <0>         0.0962
     29 H3         -0.1835    3.6649    0.0380 H         1 <0>         0.0770
     30 H4          2.4112    0.0777    1.6000 H         1 <0>         0.2267
     31 H5          1.1511   -0.7649   -3.5501 H         1 <0>         0.4000
     32 H6         -0.6821    0.6688   -5.3137 H         1 <0>         0.0978
     33 H7          1.5032    1.7787   -5.7441 H         1 <0>         0.0873
     34 H8          2.2284    0.1923   -6.1013 H         1 <0>         0.0719
     35 H9         -0.0607    1.5316   -7.6149 H         1 <0>         0.0760
     36 H10         1.5984    1.2661   -8.2100 H         1 <0>         0.1019
     37 H11        -1.4983   -0.7642   -7.2390 H         1 <0>         0.0828
     38 H12        -0.6079   -2.2571   -7.6332 H         1 <0>         0.0828
     39 H13         0.9265   -1.8868   -5.7609 H         1 <0>         0.0777
     40 H14        -0.7466   -1.8141   -5.1560 H         1 <0>         0.0888
     41 H15         0.0028   -2.7577   -9.0283 H         1 <0>         0.4111
     42 H16         3.1426   -1.7724  -10.2942 H         1 <0>         0.1542
     43 H17         3.0853   -4.4080  -13.6505 H         1 <0>         0.1512
     44 H18        -0.3872   -4.0079  -11.2018 H         1 <0>         0.1462
@<TRIPOS>BOND
     1    1    2 1
     2    1   27 1
     3    1   28 1
     4    1   29 1
     5    2    6 1
     6    2    3 2
     7    3    4 1
     8    3    7 1
     9    4    5 1
    10    5    6 2
    11    5   30 1
    12    7    8 2
    13    7    9 am
    14    9   10 1
    15    9   31 1
    16   10   15 1
    17   10   11 1
    18   10   32 1
    19   11   12 1
    20   11   33 1
    21   11   34 1
    22   12   13 1
    23   12   35 1
    24   12   36 1
    25   13   14 1
    26   13   16 am
    27   14   15 1
    28   14   37 1
    29   14   38 1
    30   15   39 1
    31   15   40 1
    32   16   17 2
    33   16   18 am
    34   18   19 1
    35   18   41 1
    36   19   24 ar
    37   19   20 ar
    38   20   21 ar
    39   20   42 1
    40   21   22 ar
    41   21   26 1
    42   22   23 ar
    43   22   43 1
    44   23   24 ar
    45   23   25 1
    46   24   44 1
@<TRIPOS>MOLECULE
ZINC20086638
   42    46     0     0     0
SMALL
USER_CHARGES

@<TRIPOS>ATOM
      1 C1         -0.0164    1.3571    0.0095 C.ar      1 <0>        -0.1137
      2 C2          1.1699    2.0885    0.0021 C.ar      1 <0>        -0.0976
      3 C3          2.3792    1.4650   -0.0128 C.ar      1 <0>        -0.0954
      4 C4          2.4398    0.0603   -0.0209 C.ar      1 <0>         0.1285
      5 C5          1.2323   -0.6813   -0.0134 C.ar      1 <0>        -0.0842
      6 C6          0.0021   -0.0041    0.0020 C.ar      1 <0>        -0.0885
      7 C7          1.2949   -2.0872   -0.0215 C.ar      1 <0>        -0.0161
      8 C8          2.5269   -2.6774   -0.0364 C.ar      1 <0>        -0.1657
      9 C9          3.6752   -1.8891   -0.0432 C.ar      1 <0>         0.1335
     10 N1          3.6131   -0.5795   -0.0351 N.ar      1 <0>        -0.4703
     11 C10         0.0380   -2.9185   -0.0135 C.3       1 <0>         0.0833
     12 H1         -0.8303   -2.2597   -0.0013 H         1 <0>         0.1155
     13 C11        -0.0021   -3.7719   -1.2499 C.2       1 <0>        -0.2712
     14 C12         0.3072   -5.0907   -1.1900 C.2       1 <0>         0.4380
     15 O1          0.6586   -5.6718   -0.0312 O.3       1 <0>        -0.2220
     16 C13         0.3273   -5.0963    1.1463 C.2       1 <0>         0.0915
     17 C14         0.0223   -3.7879    1.2183 C.2       1 <0>        -0.1748
     18 C15        -0.3344   -3.1764    2.5058 C.2       1 <0>         0.4346
     19 O2         -0.6114   -1.9935    2.5577 O.2       1 <0>        -0.4021
     20 C16        -0.3587   -3.9924    3.7382 C.ar      1 <0>        -0.1167
     21 C17        -0.6906   -3.4264    4.9624 C.ar      1 <0>        -0.0624
     22 C18        -0.7056   -4.2132    6.1040 C.ar      1 <0>        -0.0880
     23 C19        -0.3924   -5.5569    6.0326 C.ar      1 <0>        -0.0971
     24 C20        -0.0593   -6.1364    4.8185 C.ar      1 <0>        -0.0537
     25 C21        -0.0401   -5.3600    3.6653 C.ar      1 <0>        -0.1220
     26 C22         0.3083   -5.9438    2.3660 C.2       1 <0>         0.4465
     27 O3          0.5832   -7.1242    2.2897 O.2       1 <0>        -0.3933
     28 N2          0.2600   -5.8463   -2.3353 N.pl3     1 <0>        -0.8210
     29 C23        -0.3712   -3.1866   -2.5036 C.1       1 <0>         0.2689
     30 N3         -0.6639   -2.7223   -3.4982 N.1       1 <0>        -0.4280
     31 H2         -0.9628    1.8771    0.0259 H         1 <0>         0.1284
     32 H3          1.1286    3.1677    0.0079 H         1 <0>         0.1309
     33 H4          3.2890    2.0469   -0.0187 H         1 <0>         0.1361
     34 H5         -0.9239   -0.5599    0.0079 H         1 <0>         0.1293
     35 H6          2.6103   -3.7541   -0.0426 H         1 <0>         0.1298
     36 H7          4.6425   -2.3695   -0.0546 H         1 <0>         0.1607
     37 H8         -0.9360   -2.3765    5.0250 H         1 <0>         0.1481
     38 H9         -0.9636   -3.7725    7.0556 H         1 <0>         0.1430
     39 H10        -0.4068   -6.1596    6.9287 H         1 <0>         0.1438
     40 H11         0.1848   -7.1873    4.7685 H         1 <0>         0.1487
     41 H12         0.0070   -5.4359   -3.1770 H         1 <0>         0.4290
     42 H13         0.4795   -6.7906   -2.3027 H         1 <0>         0.4159
@<TRIPOS>BOND
     1    1    6 ar
     2    1    2 ar
     3    1   31 1
     4    2    3 ar
     5    2   32 1
     6    3    4 ar
     7    3   33 1
     8    4   10 ar
     9    4    5 ar
    10    5    6 ar
    11    5    7 ar
    12    6   34 1
    13    7    8 ar
    14    7   11 1
    15    8    9 ar
    16    8   35 1
    17    9   10 ar
    18    9   36 1
    19   11   12 1
    20   11   17 1
    21   11   13 1
    22   13   14 2
    23   13   29 1
    24   14   15 1
    25   14   28 1
    26   15   16 1
    27   16   26 1
    28   16   17 2
    29   17   18 1
    30   18   19 2
    31   18   20 1
    32   20   25 ar
    33   20   21 ar
    34   21   22 ar
    35   21   37 1
    36   22   23 ar
    37   22   38 1
    38   23   24 ar
    39   23   39 1
    40   24   25 ar
    41   24   40 1
    42   25   26 1
    43   26   27 2
    44   28   41 1
    45   28   42 1
    46   29   30 3
@<TRIPOS>MOLECULE
ZINC55409497
   50    52     0     0     0
SMALL
USER_CHARGES

@<TRIPOS>ATOM
      1 C1         -3.5762   -0.4883    0.9161 C.ar      1 <0>        -0.1449
      2 C2         -4.7760    0.1962    0.9168 C.ar      1 <0>         0.1219
      3 N1         -4.9712    1.2216    0.1116 N.ar      1 <0>        -0.4624
      4 C3         -4.0415    1.6410   -0.7251 C.ar      1 <0>         0.1751
      5 C4         -2.8108    1.0134   -0.7908 C.ar      1 <0>        -0.1049
      6 C5         -2.5617   -0.0786    0.0454 C.ar      1 <0>        -0.0697
      7 C6         -1.2585   -0.7825    0.0104 C.2       1 <0>         0.5643
      8 O1         -0.2283   -0.1481   -0.1032 O.2       1 <0>        -0.5189
      9 N2         -1.2156   -2.1262    0.1045 N.am      1 <0>        -0.6044
     10 C7          0.0708   -2.8289    0.2055 C.3       1 <0>         0.1161
     11 C8          0.1357   -3.8985   -0.8893 C.3       1 <0>        -0.1425
     12 C9         -1.0887   -4.8100   -0.7795 C.3       1 <0>         0.1648
     13 C10        -2.3611   -3.9849   -0.9852 C.3       1 <0>        -0.1458
     14 C11        -2.4545   -2.9159    0.1141 C.3       1 <0>         0.0978
     15 N3         -1.0132   -5.8543   -1.8043 N.am      1 <0>        -0.7443
     16 C12        -1.6506   -7.0273   -1.6193 C.2       1 <0>         0.7052
     17 O2         -2.2884   -7.2188   -0.6020 O.2       1 <0>        -0.5874
     18 N4         -1.5812   -7.9879   -2.5621 N.am      1 <0>        -0.7432
     19 C13        -2.2741   -9.2630   -2.3610 C.3       1 <0>         0.1639
     20 C14        -1.3846  -10.2038   -1.5457 C.3       1 <0>        -0.1293
     21 C15        -2.1082  -11.5354   -1.3357 C.3       1 <0>        -0.1178
     22 C16        -2.4120  -12.1704   -2.6942 C.3       1 <0>        -0.1229
     23 C17        -3.3015  -11.2297   -3.5095 C.3       1 <0>        -0.1162
     24 C18        -2.5779   -9.8981   -3.7194 C.3       1 <0>        -0.1265
     25 Cl1        -4.3674    2.9980   -1.7575 Cl        1 <0>        -0.0165
     26 H1         -3.4224   -1.3248    1.5816 H         1 <0>         0.1534
     27 H2         -5.5652   -0.1131    1.5860 H         1 <0>         0.1760
     28 H3         -2.0540    1.3614   -1.4782 H         1 <0>         0.1554
     29 H4          0.8867   -2.1186    0.0712 H         1 <0>         0.1026
     30 H5          0.1529   -3.3021    1.1840 H         1 <0>         0.0783
     31 H6          0.1448   -3.4177   -1.8675 H         1 <0>         0.0750
     32 H7          1.0424   -4.4908   -0.7660 H         1 <0>         0.0869
     33 H8         -1.1107   -5.2713    0.2078 H         1 <0>         0.0931
     34 H9         -2.3285   -3.5034   -1.9625 H         1 <0>         0.0699
     35 H10        -3.2316   -4.6387   -0.9301 H         1 <0>         0.0861
     36 H11        -2.5742   -3.3961    1.0853 H         1 <0>         0.0819
     37 H12        -3.3055   -2.2631   -0.0804 H         1 <0>         0.0957
     38 H13        -0.5044   -5.7015   -2.6159 H         1 <0>         0.3960
     39 H14        -1.0724   -7.8351   -3.3737 H         1 <0>         0.3948
     40 H15        -3.2068   -9.0890   -1.8245 H         1 <0>         0.0884
     41 H16        -0.4519  -10.3778   -2.0822 H         1 <0>         0.0617
     42 H17        -1.1682   -9.7513   -0.5780 H         1 <0>         0.0674
     43 H18        -1.4746  -12.2056   -0.7549 H         1 <0>         0.0650
     44 H19        -3.0410  -11.3614   -0.7992 H         1 <0>         0.0648
     45 H20        -1.4793  -12.3444   -3.2307 H         1 <0>         0.0625
     46 H21        -2.9276  -13.1191   -2.5446 H         1 <0>         0.0646
     47 H22        -3.5179  -11.6821   -4.4772 H         1 <0>         0.0678
     48 H23        -4.2342  -11.0557   -2.9730 H         1 <0>         0.0658
     49 H24        -3.2115   -9.2278   -4.3003 H         1 <0>         0.0681
     50 H25        -1.6451  -10.0721   -4.2559 H         1 <0>         0.0673
@<TRIPOS>BOND
     1    1    6 ar
     2    1    2 ar
     3    1   26 1
     4    2    3 ar
     5    2   27 1
     6    3    4 ar
     7    4    5 ar
     8    4   25 1
     9    5    6 ar
    10    5   28 1
    11    6    7 1
    12    7    8 2
    13    7    9 am
    14    9   14 1
    15    9   10 1
    16   10   11 1
    17   10   29 1
    18   10   30 1
    19   11   12 1
    20   11   31 1
    21   11   32 1
    22   12   13 1
    23   12   15 1
    24   12   33 1
    25   13   14 1
    26   13   34 1
    27   13   35 1
    28   14   36 1
    29   14   37 1
    30   15   16 am
    31   15   38 1
    32   16   17 2
    33   16   18 am
    34   18   19 1
    35   18   39 1
    36   19   24 1
    37   19   20 1
    38   19   40 1
    39   20   21 1
    40   20   41 1
    41   20   42 1
    42   21   22 1
    43   21   43 1
    44   21   44 1
    45   22   23 1
    46   22   45 1
    47   22   46 1
    48   23   24 1
    49   23   47 1
    50   23   48 1
    51   24   49 1
    52   24   50 1
@<TRIPOS>MOLECULE
ZINC13641776
   38    40     0     0     0
SMALL
USER_CHARGES
N-cyclopentyl-3-(1,5-dimethylpyrazol-4-yl)isoxazole-5-carboxamide
@<TRIPOS>ATOM
      1 C1         -0.5451    8.5925    0.0549 C.3       1 <0>        -0.0991
      2 C2         -2.0115    8.2452    0.0589 C.2       1 <0>         0.1284
      3 C3         -2.5419    6.9875    0.0538 C.2       1 <0>        -0.1928
      4 C4         -3.9446    7.1185    0.0550 C.2       1 <0>         0.0831
      5 N1         -4.2327    8.3928    0.0703 N.2       1 <0>        -0.2895
      6 N2         -3.0362    9.1197    0.0691 N.pl3     1 <0>        -0.3662
      7 C5         -2.9186   10.5799    0.0782 C.3       1 <0>         0.0961
      8 C6         -1.7798    5.7140    0.0424 C.2       1 <0>         0.1095
      9 C7         -2.3184    4.3977    0.0369 C.2       1 <0>        -0.1402
     10 C8         -1.2140    3.5939    0.0273 C.2       1 <0>        -0.0855
     11 O1         -0.1472    4.4156    0.0327 O.3       1 <0>         0.1136
     12 N3         -0.4773    5.5783    0.0359 N.2       1 <0>        -0.3483
     13 C9         -1.1940    2.1187    0.0192 C.2       1 <0>         0.6078
     14 O2         -2.2386    1.4966    0.0208 O.2       1 <0>        -0.5090
     15 N4         -0.0178    1.4608    0.0101 N.am      1 <0>        -0.7102
     16 C10         0.0021   -0.0041    0.0020 C.3       1 <0>         0.1384
     17 C11        -0.0317   -0.5410    1.4478 C.3       1 <0>        -0.1367
     18 C12         0.8923   -1.7836    1.4133 C.3       1 <0>        -0.1251
     19 C13         2.0307   -1.3367    0.4629 C.3       1 <0>        -0.1254
     20 C14         1.3134   -0.5100   -0.6242 C.3       1 <0>        -0.1326
     21 H1         -0.1958    8.6823   -0.9737 H         1 <0>         0.0868
     22 H2         -0.3946    9.5393    0.5736 H         1 <0>         0.0745
     23 H3          0.0157    7.8073    0.5618 H         1 <0>         0.0974
     24 H4         -4.6574    6.3072    0.0475 H         1 <0>         0.1919
     25 H5         -2.8939   10.9488   -0.9472 H         1 <0>         0.0805
     26 H6         -3.7744   11.0101    0.5985 H         1 <0>         0.0948
     27 H7         -2.0002   10.8674    0.5899 H         1 <0>         0.0905
     28 H8         -3.3573    4.1027    0.0397 H         1 <0>         0.1844
     29 H9          0.8156    1.9572    0.0048 H         1 <0>         0.4075
     30 H10        -0.8511   -0.3857   -0.5588 H         1 <0>         0.0972
     31 H11         0.3577    0.2048    2.1409 H         1 <0>         0.0721
     32 H12        -1.0463   -0.8275    1.7247 H         1 <0>         0.0737
     33 H13         0.3648   -2.6459    1.0055 H         1 <0>         0.0710
     34 H14         1.2824   -2.0027    2.4072 H         1 <0>         0.0706
     35 H15         2.5213   -2.2040    0.0210 H         1 <0>         0.0702
     36 H16         2.7532   -0.7194    0.9969 H         1 <0>         0.0684
     37 H17         1.0966   -1.1379   -1.4884 H         1 <0>         0.0783
     38 H18         1.9350    0.3344   -0.9221 H         1 <0>         0.0737
@<TRIPOS>BOND
     1    1    2 1
     2    1   21 1
     3    1   22 1
     4    1   23 1
     5    2    6 1
     6    2    3 2
     7    3    4 1
     8    3    8 1
     9    4    5 2
    10    4   24 1
    11    5    6 1
    12    6    7 1
    13    7   25 1
    14    7   26 1
    15    7   27 1
    16    8   12 2
    17    8    9 1
    18    9   10 2
    19    9   28 1
    20   10   11 1
    21   10   13 1
    22   11   12 1
    23   13   14 2
    24   13   15 am
    25   15   16 1
    26   15   29 1
    27   16   20 1
    28   16   17 1
    29   16   30 1
    30   17   18 1
    31   17   31 1
    32   17   32 1
    33   18   19 1
    34   18   33 1
    35   18   34 1
    36   19   20 1
    37   19   35 1
    38   19   36 1
    39   20   37 1
    40   20   38 1
@<TRIPOS>MOLECULE
ZINC38744708
   32    35     0     0     0
SMALL
USER_CHARGES

@<TRIPOS>ATOM
      1 C1         -0.0184    1.5028    0.0103 C.3       1 <0>        -0.0743
      2 C2          0.0021   -0.0041    0.0020 C.2       1 <0>         0.2484
      3 N1          0.0081   -0.7625   -1.0538 N.2       1 <0>        -0.2711
      4 N2          0.0144   -2.0017   -0.7074 N.2       1 <0>        -0.2228
      5 C3         -0.0044   -2.0878    0.5860 C.2       1 <0>         0.1409
      6 N3          0.0238   -0.8233    1.1167 N.pl3     1 <0>        -0.3587
      7 N4          0.0804   -0.6710    2.4703 N.3       1 <0>        -0.4419
      8 C4         -0.3873   -1.8451    3.2543 C.3       1 <0>         0.1567
      9 H1          0.2039   -1.9843    4.1594 H         1 <0>         0.1627
     10 S1         -0.0503   -3.1602    2.0065 S.3       1 <0>        -0.0075
     11 C5         -1.8807   -1.7506    3.5730 C.3       1 <0>        -0.0265
     12 H2         -2.4712   -1.7844    2.6574 H         1 <0>         0.1576
     13 C6         -2.2978   -2.8606    4.5213 C.2       1 <0>        -0.1493
     14 C7         -2.7367   -2.2046    5.6128 C.2       1 <0>         0.0229
     15 N5         -2.6333   -0.8617    5.4325 N.2       1 <0>        -0.1496
     16 N6         -2.1731   -0.5254    4.3352 N.2       1 <0>        -0.1198
     17 C8         -3.2601   -2.8563    6.8387 C.ar      1 <0>        -0.0403
     18 C9         -3.3185   -4.2461    6.9213 C.ar      1 <0>        -0.0989
     19 C10        -3.8058   -4.8470    8.0642 C.ar      1 <0>        -0.1201
     20 C11        -4.2357   -4.0723    9.1265 C.ar      1 <0>        -0.1044
     21 C12        -4.1800   -2.6923    9.0500 C.ar      1 <0>        -0.1207
     22 C13        -3.6896   -2.0808    7.9140 C.ar      1 <0>        -0.0844
     23 H3          1.0042    1.8801    0.0026 H         1 <0>         0.0927
     24 H4         -0.5455    1.8639   -0.8728 H         1 <0>         0.1027
     25 H5         -0.5286    1.8543    0.9071 H         1 <0>         0.0908
     26 H6          1.0023   -0.3843    2.7636 H         1 <0>         0.3870
     27 H7         -2.2534   -3.9274    4.3585 H         1 <0>         0.1820
     28 H8         -2.9835   -4.8519    6.0924 H         1 <0>         0.1250
     29 H9         -3.8519   -5.9241    8.1292 H         1 <0>         0.1292
     30 H10        -4.6167   -4.5467   10.0188 H         1 <0>         0.1272
     31 H11        -4.5173   -2.0922    9.8822 H         1 <0>         0.1296
     32 H12        -3.6424   -1.0034    7.8570 H         1 <0>         0.1351
@<TRIPOS>BOND
     1    1    2 1
     2    1   23 1
     3    1   24 1
     4    1   25 1
     5    2    6 1
     6    2    3 2
     7    3    4 1
     8    4    5 2
     9    5   10 1
    10    5    6 1
    11    6    7 1
    12    7    8 1
    13    7   26 1
    14    8    9 1
    15    8   10 1
    16    8   11 1
    17   11   12 1
    18   11   16 1
    19   11   13 1
    20   13   14 2
    21   13   27 1
    22   14   15 1
    23   14   17 1
    24   15   16 2
    25   17   22 ar
    26   17   18 ar
    27   18   19 ar
    28   18   28 1
    29   19   20 ar
    30   19   29 1
    31   20   21 ar
    32   20   30 1
    33   21   22 ar
    34   21   31 1
    35   22   32 1
@<TRIPOS>MOLECULE
ZINC45810647
   37    39     0     0     0
SMALL
USER_CHARGES

@<TRIPOS>ATOM
      1 C1         -0.0173    1.4248    0.0099 C.3       1 <0>         0.0346
      2 O1          0.0021   -0.0041    0.0020 O.3       1 <0>        -0.3509
      3 C2         -1.1900   -0.6320    0.0100 C.2       1 <0>         0.5118
      4 O2         -2.2178    0.0157    0.0233 O.2       1 <0>        -0.5080
      5 C3         -1.2472   -2.1061    0.0027 C.ar      1 <0>        -0.1550
      6 C4         -0.0603   -2.8535   -0.0069 C.ar      1 <0>        -0.0463
      7 C5         -0.0977   -4.2158   -0.0139 C.ar      1 <0>        -0.1376
      8 C6         -1.3196   -4.8858   -0.0116 C.ar      1 <0>         0.1315
      9 C7         -2.5208   -4.1465   -0.0020 C.ar      1 <0>        -0.1085
     10 C8         -2.4788   -2.7543    0.0109 C.ar      1 <0>         0.0075
     11 C9         -3.5948   -5.1345   -0.0027 C.2       1 <0>        -0.1698
     12 C10        -3.0226   -6.3530   -0.0140 C.2       1 <0>         0.0902
     13 N1         -1.6617   -6.2173   -0.0163 N.pl3     1 <0>        -0.5818
     14 H1         -1.0300   -6.9533   -0.0212 H         1 <0>         0.4187
     15 C11        -3.7974   -7.6505   -0.0286 C.3       1 <0>        -0.0738
     16 C12        -5.2346   -7.3769    0.4289 C.3       1 <0>         0.1275
     17 N2         -5.7417   -6.1812   -0.2608 N.pl3     1 <0>        -1.0037
     18 C13        -5.0833   -4.8904    0.0107 C.3       1 <0>         0.1904
     19 S1         -7.0162   -6.2819   -1.3134 S.o2      1 <0>         2.6108
     20 O3         -6.8389   -5.1883   -2.2032 O.2       1 <0>        -0.9490
     21 O4         -6.9850   -7.6190   -1.7936 O.2       1 <0>        -0.9527
     22 C14        -8.4895   -6.0205   -0.2879 C.3       1 <0>        -0.6725
     23 H2          1.0053    1.8021    0.0021 H         1 <0>         0.1033
     24 H3         -0.5445    1.7859   -0.8732 H         1 <0>         0.0616
     25 H4         -0.5275    1.7763    0.9067 H         1 <0>         0.0613
     26 H5          0.8922   -2.3445   -0.0091 H         1 <0>         0.1420
     27 H6          0.8240   -4.7788   -0.0217 H         1 <0>         0.1301
     28 H7         -3.3948   -2.1823    0.0233 H         1 <0>         0.1407
     29 H8         -3.8076   -8.0581   -1.0394 H         1 <0>         0.0930
     30 H9         -3.3281   -8.3634    0.6494 H         1 <0>         0.0932
     31 H10        -5.8638   -8.2328    0.1844 H         1 <0>         0.1034
     32 H11        -5.2484   -7.2095    1.5059 H         1 <0>         0.0813
     33 H12        -5.3890   -4.5164    0.9878 H         1 <0>         0.0829
     34 H13        -5.3478   -4.1693   -0.7627 H         1 <0>         0.1070
     35 H14        -8.4337   -5.0400    0.1850 H         1 <0>         0.1293
     36 H15        -9.3810   -6.0722   -0.9129 H         1 <0>         0.1295
     37 H16        -8.5390   -6.7922    0.4803 H         1 <0>         0.1281
@<TRIPOS>BOND
     1    1    2 1
     2    1   23 1
     3    1   24 1
     4    1   25 1
     5    2    3 1
     6    3    4 2
     7    3    5 1
     8    5   10 ar
     9    5    6 ar
    10    6    7 ar
    11    6   26 1
    12    7    8 ar
    13    7   27 1
    14    8   13 1
    15    8    9 ar
    16    9   10 ar
    17    9   11 1
    18   10   28 1
    19   11   18 1
    20   11   12 2
    21   12   13 1
    22   12   15 1
    23   13   14 1
    24   15   16 1
    25   15   29 1
    26   15   30 1
    27   16   17 1
    28   16   31 1
    29   16   32 1
    30   17   18 1
    31   17   19 1
    32   18   33 1
    33   18   34 1
    34   19   20 2
    35   19   21 2
    36   19   22 1
    37   22   35 1
    38   22   36 1
    39   22   37 1
@<TRIPOS>MOLECULE
ZINC61824193
   39    40     0     0     0
SMALL
USER_CHARGES

@<TRIPOS>ATOM
      1 C1         -0.0187    1.5258    0.0104 C.3       1 <0>        -0.1425
      2 C2          0.0021   -0.0041    0.0020 C.3       1 <0>        -0.0653
      3 C3         -1.4338   -0.5335    0.0112 C.3       1 <0>        -0.1214
      4 C4         -1.4095   -2.0646   -0.0322 C.3       1 <0>         0.1142
      5 N1         -0.5782   -2.5560    1.0751 N.pl3     1 <0>        -0.9956
      6 C5          0.7913   -2.0416    1.2125 C.3       1 <0>         0.1143
      7 C6          0.7423   -0.5108    1.2420 C.3       1 <0>        -0.1214
      8 S1         -1.1734   -3.6680    2.1481 S.o2      1 <0>         2.7091
      9 O1         -0.4206   -3.5214    3.3444 O.2       1 <0>        -0.9524
     10 O2         -2.5887   -3.5437    2.1185 O.2       1 <0>        -0.9523
     11 C7         -0.7946   -5.2650    1.5072 C.ar      1 <0>        -0.8560
     12 C8         -1.6770   -5.9150    0.6587 C.ar      1 <0>         0.2951
     13 N2         -1.3623   -7.1132    0.1952 N.ar      1 <0>        -0.5768
     14 C9         -0.2192   -7.6914    0.5336 C.ar      1 <0>         0.5964
     15 N3          0.6457   -7.0975    1.3427 N.ar      1 <0>        -0.5730
     16 C10         0.3947   -5.8961    1.8361 C.ar      1 <0>         0.2948
     17 N4          0.0783   -8.9459    0.0302 N.pl3     1 <0>        -0.6879
     18 C11         1.3374   -9.6011    0.3931 C.3       1 <0>         0.0977
     19 C12         0.7189   -0.4972   -1.2565 C.3       1 <0>        -0.1476
     20 H1          1.0039    1.9031    0.0027 H         1 <0>         0.0561
     21 H2         -0.5459    1.8868   -0.8726 H         1 <0>         0.0561
     22 H3         -0.5289    1.8773    0.9072 H         1 <0>         0.0557
     23 H4         -1.9375   -0.2032    0.9196 H         1 <0>         0.0711
     24 H5         -1.9673   -0.1533   -0.8600 H         1 <0>         0.0775
     25 H6         -2.4239   -2.4493    0.0738 H         1 <0>         0.0945
     26 H7         -0.9879   -2.3966   -0.9810 H         1 <0>         0.0722
     27 H8          1.2290   -2.4111    2.1398 H         1 <0>         0.0945
     28 H9          1.3923   -2.3717    0.3653 H         1 <0>         0.0722
     29 H10         1.7577   -0.1143    1.2468 H         1 <0>         0.0775
     30 H11         0.2181   -0.1807    2.1388 H         1 <0>         0.0711
     31 H12        -2.6105   -5.4489    0.3796 H         1 <0>         0.1834
     32 H13         1.1058   -5.4149    2.4913 H         1 <0>         0.1833
     33 H14        -0.5468   -9.3913   -0.5628 H         1 <0>         0.4204
     34 H15         2.1750   -8.9825    0.0706 H         1 <0>         0.0657
     35 H16         1.3792   -9.7344    1.4741 H         1 <0>         0.0660
     36 H17         1.3948  -10.5738   -0.0954 H         1 <0>         0.0827
     37 H18         1.7414   -0.1198   -1.2637 H         1 <0>         0.0557
     38 H19         0.7337   -1.5871   -1.2627 H         1 <0>         0.0593
     39 H20         0.1921   -0.1360   -2.1398 H         1 <0>         0.0557
@<TRIPOS>BOND
     1    1    2 1
     2    1   20 1
     3    1   21 1
     4    1   22 1
     5    2    7 1
     6    2    3 1
     7    2   19 1
     8    3    4 1
     9    3   23 1
    10    3   24 1
    11    4    5 1
    12    4   25 1
    13    4   26 1
    14    5    6 1
    15    5    8 1
    16    6    7 1
    17    6   27 1
    18    6   28 1
    19    7   29 1
    20    7   30 1
    21    8    9 2
    22    8   10 2
    23    8   11 1
    24   11   16 ar
    25   11   12 ar
    26   12   13 ar
    27   12   31 1
    28   13   14 ar
    29   14   15 ar
    30   14   17 1
    31   15   16 ar
    32   16   32 1
    33   17   18 1
    34   17   33 1
    35   18   34 1
    36   18   35 1
    37   18   36 1
    38   19   37 1
    39   19   38 1
    40   19   39 1
@<TRIPOS>MOLECULE
ZINC65288208
   43    46     0     0     0
SMALL
USER_CHARGES

@<TRIPOS>ATOM
      1 C1          4.8908    4.0187    0.0001 C.2       1 <0>        -0.2217
      2 C2          3.8235    3.1216    0.1628 C.2       1 <0>        -0.1139
      3 C3          4.3193    1.8732   -0.0823 C.2       1 <0>        -0.0822
      4 O1          5.6291    1.9954   -0.3815 O.3       1 <0>        -0.1569
      5 C4          5.9775    3.2877   -0.3328 C.2       1 <0>        -0.0090
      6 C5          3.5608    0.6191   -0.0290 C.2       1 <0>         0.6075
      7 O2          2.3531    0.6441    0.1182 O.2       1 <0>        -0.5180
      8 N1          4.2014   -0.5612   -0.1432 N.am      1 <0>        -0.6033
      9 C6          3.4449   -1.8153   -0.2598 C.3       1 <0>         0.1081
     10 C7          3.9330   -2.7876    0.8188 C.3       1 <0>        -0.1298
     11 C8          5.4496   -2.9551    0.7005 C.3       1 <0>        -0.1306
     12 C9          6.1326   -1.6039    0.9235 C.3       1 <0>         0.1434
     13 H1          5.8654   -1.2191    1.9076 H         1 <0>         0.0974
     14 C10         5.6695   -0.6176   -0.1596 C.3       1 <0>         0.0860
     15 N2          7.5858   -1.7712    0.8419 N.pl3     1 <0>        -0.7051
     16 C11         8.4233   -0.8790    1.4914 C.ar      1 <0>         0.4524
     17 C12         9.8099   -1.0240    1.4168 C.ar      1 <0>        -0.2712
     18 C13        10.6044   -0.1120    2.0793 C.ar      1 <0>         0.1935
     19 N3         10.0275    0.8687    2.7625 N.ar      1 <0>        -0.5539
     20 C14         8.7159    0.9796    2.8144 C.ar      1 <0>         0.3397
     21 N4          7.9203    0.1334    2.1919 N.ar      1 <0>        -0.5718
     22 C15        12.0617   -0.4540    1.8665 C.3       1 <0>        -0.0747
     23 C16        12.0654   -1.9149    1.3667 C.3       1 <0>        -0.1175
     24 C17        10.6727   -2.0441    0.7121 C.3       1 <0>        -0.0641
     25 H2          4.8501    5.0918    0.1150 H         1 <0>         0.1576
     26 H3          2.8072    3.3707    0.4299 H         1 <0>         0.1605
     27 H4          6.9643    3.6809   -0.5279 H         1 <0>         0.2068
     28 H5          2.3827   -1.6158   -0.1183 H         1 <0>         0.0997
     29 H6          3.6090   -2.2507   -1.2455 H         1 <0>         0.0735
     30 H7          3.6864   -2.3917    1.8040 H         1 <0>         0.0732
     31 H8          3.4485   -3.7545    0.6831 H         1 <0>         0.0863
     32 H9          5.7961   -3.6654    1.4511 H         1 <0>         0.0758
     33 H10         5.6973   -3.3276   -0.2934 H         1 <0>         0.0718
     34 H11         6.0113   -0.9574   -1.1373 H         1 <0>         0.0697
     35 H12         6.0756    0.3724    0.0480 H         1 <0>         0.1153
     36 H13         7.9615   -2.5067    0.3333 H         1 <0>         0.4115
     37 H14         8.2801    1.7898    3.3802 H         1 <0>         0.1956
     38 H15        12.4988    0.2039    1.1153 H         1 <0>         0.0950
     39 H16        12.6099   -0.3741    2.8053 H         1 <0>         0.0900
     40 H17        12.8551   -2.0711    0.6317 H         1 <0>         0.0854
     41 H18        12.1676   -2.6095    2.2004 H         1 <0>         0.0766
     42 H19        10.2742   -3.0470    0.8650 H         1 <0>         0.0725
     43 H20        10.7326   -1.8181   -0.3526 H         1 <0>         0.0792
@<TRIPOS>BOND
     1    1    5 2
     2    1    2 1
     3    1   25 1
     4    2    3 2
     5    2   26 1
     6    3    4 1
     7    3    6 1
     8    4    5 1
     9    5   27 1
    10    6    7 2
    11    6    8 am
    12    8   14 1
    13    8    9 1
    14    9   10 1
    15    9   28 1
    16    9   29 1
    17   10   11 1
    18   10   30 1
    19   10   31 1
    20   11   12 1
    21   11   32 1
    22   11   33 1
    23   12   13 1
    24   12   14 1
    25   12   15 1
    26   14   34 1
    27   14   35 1
    28   15   16 1
    29   15   36 1
    30   16   21 ar
    31   16   17 ar
    32   17   24 1
    33   17   18 ar
    34   18   19 ar
    35   18   22 1
    36   19   20 ar
    37   20   21 ar
    38   20   37 1
    39   22   23 1
    40   22   38 1
    41   22   39 1
    42   23   24 1
    43   23   40 1
    44   23   41 1
    45   24   42 1
    46   24   43 1
@<TRIPOS>MOLECULE
ZINC13090413
   47    51     0     0     0
SMALL
USER_CHARGES
2-[[(7R)-7-methyl-2-(3-pyridyl)-5,6,7,8-tetrahydrobenzothiopheno[3,2-e]pyrimidin-4-yl]sulfanyl]pyridine-3-carboxylic acid
@<TRIPOS>ATOM
      1 C1         -9.0950    5.4555   -0.0583 C.3       1 <0>        -0.1453
      2 C2         -7.6812    4.9849    0.2888 C.3       1 <0>        -0.0884
      3 H1         -7.5253    5.0513    1.3656 H         1 <0>         0.0787
      4 C3         -6.6555    5.8630   -0.4338 C.3       1 <0>        -0.1117
      5 C4         -5.2522    5.5643    0.0948 C.3       1 <0>        -0.0746
      6 C5         -5.0050    4.0603    0.0134 C.2       1 <0>        -0.0727
      7 C6         -6.0357    3.1977   -0.1039 C.2       1 <0>        -0.1472
      8 S1         -5.2900    1.5904   -0.1627 S.3       1 <0>         0.0903
      9 C7         -3.5902    2.0794   -0.0284 C.ar      1 <0>         0.1359
     10 C8         -3.6600    3.4860    0.0571 C.ar      1 <0>        -0.1809
     11 C9         -2.4100    4.1570    0.1750 C.ar      1 <0>         0.1424
     12 N1         -1.2958    3.4462    0.2011 N.ar      1 <0>        -0.4502
     13 C10        -1.3019    2.1205    0.1116 C.ar      1 <0>         0.3746
     14 N2         -2.4379    1.4428    0.0003 N.ar      1 <0>        -0.4924
     15 C11        -0.0157    1.3837    0.1426 C.ar      1 <0>        -0.0823
     16 C12         1.1834    2.0576    0.3949 C.ar      1 <0>        -0.0339
     17 C13         2.3576    1.3252    0.4075 C.ar      1 <0>        -0.1858
     18 C14         2.3081   -0.0371    0.1728 C.ar      1 <0>         0.1092
     19 N3          1.1616   -0.6455   -0.0624 N.ar      1 <0>        -0.4921
     20 C15         0.0188    0.0092   -0.0849 C.ar      1 <0>         0.1433
     21 S2         -2.3491    5.9142    0.2893 S.3       1 <0>         0.2637
     22 C16        -0.6061    6.1647    0.2257 C.ar      1 <0>         0.0744
     23 C17        -0.0772    7.4538    0.4155 C.ar      1 <0>        -0.1407
     24 C18         1.3109    7.6274    0.3604 C.ar      1 <0>        -0.0304
     25 C19         2.1029    6.5187    0.1207 C.ar      1 <0>        -0.1835
     26 C20         1.5085    5.2815   -0.0562 C.ar      1 <0>         0.0819
     27 N4          0.1995    5.1371    0.0047 N.ar      1 <0>        -0.4265
     28 C21        -0.9671    8.5999    0.6682 C.2       1 <0>         0.4907
     29 O1         -2.1704    8.4364    0.7141 O.co2     1 <0>        -0.5988
     30 C22        -7.4951    3.5315   -0.1698 C.3       1 <0>        -0.0307
     31 H2         -9.2487    5.3808   -1.1348 H         1 <0>         0.0563
     32 H3         -9.8232    4.8292    0.4571 H         1 <0>         0.0553
     33 H4         -9.2203    6.4918    0.2556 H         1 <0>         0.0600
     34 H5         -6.8917    6.9130   -0.2609 H         1 <0>         0.0765
     35 H6         -6.6912    5.6563   -1.5035 H         1 <0>         0.0669
     36 H7         -5.1751    5.8915    1.1316 H         1 <0>         0.0898
     37 H8         -4.5126    6.0892   -0.5098 H         1 <0>         0.0926
     38 H9          1.1929    3.1224    0.5750 H         1 <0>         0.1627
     39 H10         3.3024    1.8120    0.5992 H         1 <0>         0.1394
     40 H11         3.2225   -0.6117    0.1826 H         1 <0>         0.1568
     41 H12        -0.8997   -0.5240   -0.2810 H         1 <0>         0.1666
     42 H13         1.7526    8.6028    0.5018 H         1 <0>         0.1455
     43 H14         3.1773    6.6178    0.0723 H         1 <0>         0.1307
     44 H15         2.1289    4.4175   -0.2432 H         1 <0>         0.1500
     45 H16        -8.0540    2.8649    0.4870 H         1 <0>         0.0825
     46 H17        -7.8514    3.4213   -1.1939 H         1 <0>         0.0857
     47 O2         -0.4469    9.8301    0.8484 O.co2     1 <0>        -0.7346
@<TRIPOS>BOND
     1    1    2 1
     2    1   31 1
     3    1   32 1
     4    1   33 1
     5    2    3 1
     6    2   30 1
     7    2    4 1
     8    4    5 1
     9    4   34 1
    10    4   35 1
    11    5    6 1
    12    5   36 1
    13    5   37 1
    14    6   10 1
    15    6    7 2
    16    7    8 1
    17    7   30 1
    18    8    9 1
    19    9   14 ar
    20    9   10 ar
    21   10   11 ar
    22   11   12 ar
    23   11   21 1
    24   12   13 ar
    25   13   14 ar
    26   13   15 1
    27   15   20 ar
    28   15   16 ar
    29   16   17 ar
    30   16   38 1
    31   17   18 ar
    32   17   39 1
    33   18   19 ar
    34   18   40 1
    35   19   20 ar
    36   20   41 1
    37   21   22 1
    38   22   27 ar
    39   22   23 ar
    40   23   24 ar
    41   23   28 1
    42   24   25 ar
    43   24   42 1
    44   25   26 ar
    45   25   43 1
    46   26   27 ar
    47   26   44 1
    48   28   29 2
    49   28   47 1
    50   30   45 1
    51   30   46 1
@<TRIPOS>MOLECULE
ZINC01094626
   31    32     0     0     0
SMALL
USER_CHARGES
3,6-dibromo-2-[(E)-(2-methoxy-5-nitro-phenyl)iminomethyl]phenol
@<TRIPOS>ATOM
      1 C1         -4.3400    5.3692   -0.1828 C.3       1 <0>         0.0160
      2 O1         -4.5736    3.9610   -0.1175 O.3       1 <0>        -0.2787
      3 C2         -3.4950    3.1667    0.1095 C.ar      1 <0>         0.1717
      4 C3         -2.2389    3.7281    0.2666 C.ar      1 <0>        -0.1996
      5 C4         -1.1427    2.9195    0.5032 C.ar      1 <0>        -0.0458
      6 C5         -1.2895    1.5449    0.5744 C.ar      1 <0>        -0.0600
      7 C6         -2.5338    0.9696    0.4202 C.ar      1 <0>        -0.0798
      8 C7         -3.6491    1.7760    0.1861 C.ar      1 <0>         0.1057
      9 N1         -4.8858    1.2116    0.0318 N.2       1 <0>        -0.5047
     10 C8         -5.0438    0.1973   -0.7720 C.2       1 <0>         0.2665
     11 C9         -6.3447   -0.4830   -0.8502 C.ar      1 <0>        -0.2224
     12 C10        -7.4150   -0.0491   -0.0593 C.ar      1 <0>         0.0330
     13 C11        -8.6339   -0.6890   -0.1420 C.ar      1 <0>        -0.2362
     14 C12        -8.8012   -1.7660   -0.9964 C.ar      1 <0>        -0.0119
     15 C13        -7.7511   -2.2085   -1.7789 C.ar      1 <0>        -0.2150
     16 C14        -6.5196   -1.5748   -1.7136 C.ar      1 <0>         0.3260
     17 O2         -5.4880   -2.0084   -2.4820 O.3       1 <0>        -0.6625
     18 Br1        -7.9943   -3.6812   -2.9399 Br        1 <0>        -0.0805
     19 Br2        -7.1920    1.4162    1.1150 Br        1 <0>        -0.0386
     20 N2         -0.1075    0.6892    0.8230 N.pl3     1 <0>         0.0371
     21 O3         -0.2347   -0.5202    0.8911 O.2       1 <0>        -0.1655
     22 O4          0.9930    1.1942    0.9546 O.3       1 <0>        -0.1769
     23 H1         -5.2905    5.8902   -0.3699 H         1 <0>         0.1055
     24 H2         -3.6358    5.5866   -0.9994 H         1 <0>         0.0581
     25 H3         -3.9139    5.7148    0.7706 H         1 <0>         0.0578
     26 H4         -2.1161    4.7995    0.2083 H         1 <0>         0.1485
     27 H5         -0.1658    3.3624    0.6291 H         1 <0>         0.1498
     28 H6         -2.6449   -0.1030    0.4801 H         1 <0>         0.1557
     29 H7         -4.2037   -0.1495   -1.3917 H         1 <0>         0.1119
     30 H8         -9.4605   -0.3512    0.4654 H         1 <0>         0.1179
     31 H9         -9.7582   -2.2635   -1.0515 H         1 <0>         0.1167
@<TRIPOS>BOND
     1    1    2 1
     2    1   23 1
     3    1   24 1
     4    1   25 1
     5    2    3 1
     6    3    8 ar
     7    3    4 ar
     8    4    5 ar
     9    4   26 1
    10    5    6 ar
    11    5   27 1
    12    6    7 ar
    13    6   20 1
    14    7    8 ar
    15    7   28 1
    16    8    9 1
    17    9   10 2
    18   10   11 1
    19   10   29 1
    20   11   16 ar
    21   11   12 ar
    22   12   13 ar
    23   12   19 1
    24   13   14 ar
    25   13   30 1
    26   14   15 ar
    27   14   31 1
    28   15   16 ar
    29   15   18 1
    30   16   17 1
    31   20   21 2
    32   20   22 1
@<TRIPOS>MOLECULE
ZINC01042387
   39    41     0     0     0
SMALL
USER_CHARGES

@<TRIPOS>ATOM
      1 C1          0.1904    1.4999   -0.1355 C.3       1 <0>        -0.1712
      2 C2          0.0001   -0.0121   -0.0001 C.3       1 <0>         0.1925
      3 H1          0.3979   -0.5091   -0.8849 H         1 <0>         0.0817
      4 C3         -1.4683   -0.3236    0.1336 C.2       1 <0>         0.1117
      5 N1         -2.2054   -0.1322    1.1910 N.2       1 <0>        -0.2537
      6 N2         -3.4133   -0.5065    0.9622 N.2       1 <0>        -0.3394
      7 C4         -3.5156   -0.9618   -0.2650 C.2       1 <0>         0.3858
      8 S1         -4.9732   -1.5861   -1.0332 S.3       1 <0>        -0.7845
      9 N3         -2.2771   -0.8548   -0.8358 N.pl3     1 <0>        -0.4543
     10 C5         -1.9110   -1.2165   -2.1408 C.ar      1 <0>         0.1574
     11 C6         -1.4911   -0.2453   -3.0394 C.ar      1 <0>        -0.1053
     12 C7         -1.1307   -0.6038   -4.3236 C.ar      1 <0>        -0.1014
     13 C8         -1.1884   -1.9298   -4.7149 C.ar      1 <0>        -0.0327
     14 C9         -1.6067   -2.8997   -3.8209 C.ar      1 <0>        -0.0970
     15 C10        -1.9626   -2.5468   -2.5339 C.ar      1 <0>        -0.0709
     16 Cl1        -0.7358   -2.3773   -6.3301 Cl        1 <0>        -0.0732
     17 O1          0.6932   -0.4774    1.1597 O.3       1 <0>        -0.2858
     18 C11         2.0147   -0.7641    1.0156 C.ar      1 <0>         0.1283
     19 C12         2.6570   -0.4902   -0.1827 C.ar      1 <0>        -0.1794
     20 C13         3.9994   -0.7814   -0.3291 C.ar      1 <0>        -0.0774
     21 C14         4.7049   -1.3473    0.7224 C.ar      1 <0>         0.0554
     22 C15         4.0627   -1.6203    1.9211 C.ar      1 <0>        -0.1466
     23 C16         2.7214   -1.3252    2.0689 C.ar      1 <0>        -0.1105
     24 O2          6.0261   -1.6347    0.5780 O.3       1 <0>        -0.3100
     25 C17         6.6901   -2.2163    1.7019 C.3       1 <0>         0.6030
     26 F1          6.0752   -3.4292    2.0304 F         1 <0>        -0.1656
     27 F2          8.0328   -2.4456    1.3829 F         1 <0>        -0.1341
     28 F3          6.6123   -1.3435    2.7925 F         1 <0>        -0.1660
     29 H2          1.2525    1.7252   -0.2322 H         1 <0>         0.0701
     30 H3         -0.3382    1.8549   -1.0202 H         1 <0>         0.0733
     31 H4         -0.2073    1.9969    0.7493 H         1 <0>         0.0812
     32 H5         -1.4466    0.7899   -2.7346 H         1 <0>         0.1338
     33 H6         -0.8039    0.1515   -5.0230 H         1 <0>         0.1389
     34 H7         -1.6509   -3.9341   -4.1286 H         1 <0>         0.1395
     35 H8         -2.2850   -3.3046   -1.8353 H         1 <0>         0.1386
     36 H9          2.1077   -0.0496   -1.0015 H         1 <0>         0.1444
     37 H10         4.4994   -0.5687   -1.2624 H         1 <0>         0.1411
     38 H11         4.6120   -2.0613    2.7398 H         1 <0>         0.1383
     39 H12         2.2223   -1.5343    3.0035 H         1 <0>         0.1442
@<TRIPOS>BOND
     1    1    2 1
     2    1   29 1
     3    1   30 1
     4    1   31 1
     5    2    3 1
     6    2   17 1
     7    2    4 1
     8    4    9 1
     9    4    5 2
    10    5    6 1
    11    6    7 2
    12    7    8 1
    13    7    9 1
    14    9   10 1
    15   10   15 ar
    16   10   11 ar
    17   11   12 ar
    18   11   32 1
    19   12   13 ar
    20   12   33 1
    21   13   14 ar
    22   13   16 1
    23   14   15 ar
    24   14   34 1
    25   15   35 1
    26   17   18 1
    27   18   23 ar
    28   18   19 ar
    29   19   20 ar
    30   19   36 1
    31   20   21 ar
    32   20   37 1
    33   21   22 ar
    34   21   24 1
    35   22   23 ar
    36   22   38 1
    37   23   39 1
    38   24   25 1
    39   25   26 1
    40   25   27 1
    41   25   28 1
@<TRIPOS>MOLECULE
ZINC38892386
   44    48     0     0     0
SMALL
USER_CHARGES

@<TRIPOS>ATOM
      1 C1         -0.0828   -0.7313   -1.2250 C.3       1 <0>         0.0277
      2 O1          0.0013   -0.0043    0.0024 O.3       1 <0>        -0.3214
      3 C2          0.6250   -0.6186    1.0418 C.ar      1 <0>         0.1297
      4 C3          1.1505   -1.8925    0.8821 C.ar      1 <0>        -0.2031
      5 C4          1.7844   -2.5146    1.9402 C.ar      1 <0>        -0.0117
      6 C5          1.8951   -1.8688    3.1577 C.ar      1 <0>        -0.1203
      7 C6          1.3718   -0.5993    3.3196 C.ar      1 <0>        -0.0739
      8 C7          0.7424    0.0296    2.2628 C.ar      1 <0>        -0.1589
      9 C8          2.5867   -2.5500    4.3104 C.3       1 <0>         0.0816
     10 H1          3.0419   -1.7821    4.9358 H         1 <0>         0.1031
     11 C9          3.6674   -3.4062    3.7643 C.2       1 <0>        -0.2852
     12 C10         3.9718   -4.6959    4.0737 C.2       1 <0>         0.1094
     13 N1          5.0405   -5.1858    3.4394 N.2       1 <0>        -0.5583
     14 C11         5.7150   -4.4759    2.5621 C.2       1 <0>         0.2811
     15 S1          7.1328   -4.9489    1.6290 S.3       1 <0>        -0.7211
     16 S2          4.8952   -3.0050    2.5465 S.3       1 <0>         0.0677
     17 S3          2.9810   -5.6200    5.2176 S.3       1 <0>        -0.0198
     18 C12         2.0241   -4.3421    6.0941 C.3       1 <0>        -0.1104
     19 H2          2.5280   -3.9614    6.9825 H         1 <0>         0.1622
     20 C13         1.5625   -3.2579    5.1146 C.3       1 <0>        -0.1108
     21 H3          1.1161   -2.4933    5.7503 H         1 <0>         0.1242
     22 C14         0.3929   -3.8843    4.4223 C.2       1 <0>         0.5495
     23 O2         -0.0144   -3.6367    3.3076 O.2       1 <0>        -0.4214
     24 N2         -0.1166   -4.7848    5.2958 N.am      1 <0>        -0.5237
     25 C15         0.6563   -4.9855    6.3846 C.2       1 <0>         0.5536
     26 O3          0.3370   -5.5704    7.3973 O.2       1 <0>        -0.4423
     27 C16        -1.3393   -5.4408    5.0928 C.ar      1 <0>         0.1333
     28 C17        -2.0855   -5.1828    3.9509 C.ar      1 <0>        -0.1270
     29 C18        -3.2894   -5.8301    3.7531 C.ar      1 <0>        -0.0883
     30 C19        -3.7520   -6.7353    4.6921 C.ar      1 <0>        -0.0463
     31 C20        -3.0102   -6.9938    5.8313 C.ar      1 <0>        -0.0887
     32 C21        -1.8027   -6.3535    6.0305 C.ar      1 <0>        -0.1298
     33 Cl1        -5.2656   -7.5474    4.4407 Cl        1 <0>        -0.0708
     34 H4         -0.6314   -1.6588   -1.0610 H         1 <0>         0.0545
     35 H5         -0.6027   -0.1284   -1.9695 H         1 <0>         0.0963
     36 H6          0.9216   -0.9612   -1.5806 H         1 <0>         0.0562
     37 H7          1.0636   -2.3977   -0.0685 H         1 <0>         0.1238
     38 H8          2.1936   -3.5064    1.8163 H         1 <0>         0.1204
     39 H9          1.4593   -0.0971    4.2717 H         1 <0>         0.1252
     40 H10         0.3378    1.0230    2.3885 H         1 <0>         0.1258
     41 H11        -1.7251   -4.4762    3.2180 H         1 <0>         0.1646
     42 H12        -3.8705   -5.6294    2.8652 H         1 <0>         0.1403
     43 H13        -3.3734   -7.7004    6.5629 H         1 <0>         0.1407
     44 H14        -1.2218   -6.5592    6.9174 H         1 <0>         0.1624
@<TRIPOS>BOND
     1    1    2 1
     2    1   34 1
     3    1   35 1
     4    1   36 1
     5    2    3 1
     6    3    8 ar
     7    3    4 ar
     8    4    5 ar
     9    4   37 1
    10    5    6 ar
    11    5   38 1
    12    6    7 ar
    13    6    9 1
    14    7    8 ar
    15    7   39 1
    16    8   40 1
    17    9   10 1
    18    9   20 1
    19    9   11 1
    20   11   16 1
    21   11   12 2
    22   12   13 1
    23   12   17 1
    24   13   14 2
    25   14   15 1
    26   14   16 1
    27   17   18 1
    28   18   19 1
    29   18   25 1
    30   18   20 1
    31   20   21 1
    32   20   22 1
    33   22   23 2
    34   22   24 am
    35   24   25 am
    36   24   27 1
    37   25   26 2
    38   27   32 ar
    39   27   28 ar
    40   28   29 ar
    41   28   41 1
    42   29   30 ar
    43   29   42 1
    44   30   31 ar
    45   30   33 1
    46   31   32 ar
    47   31   43 1
    48   32   44 1
@<TRIPOS>MOLECULE
ZINC39775549
   56    59     0     0     0
SMALL
USER_CHARGES

@<TRIPOS>ATOM
      1 C1         -0.0187    1.5258    0.0104 C.3       1 <0>        -0.1588
      2 C2          0.0021   -0.0041    0.0020 C.3       1 <0>        -0.1046
      3 C3         -1.4333   -0.5336    0.0129 C.3       1 <0>        -0.0738
      4 H1         -1.9862   -0.1019   -0.8214 H         1 <0>         0.0996
      5 C4         -1.4157   -2.0577   -0.1212 C.3       1 <0>        -0.1499
      6 S1         -2.2359   -0.0732    1.5731 S.3       1 <0>        -0.0037
      7 C5         -3.9002   -0.6161    1.3728 C.2       1 <0>         0.4331
      8 N1         -4.2465   -1.2118    0.2380 N.2       1 <0>        -0.6812
      9 C6         -5.5007   -1.5598   -0.0093 C.2       1 <0>         0.5165
     10 O1         -5.7663   -2.1478   -1.0400 O.2       1 <0>        -0.4901
     11 C7         -6.5951   -1.2412    0.9595 C.3       1 <0>        -0.2145
     12 H2         -7.2108   -0.4517    0.5287 H         1 <0>         0.1175
     13 C8         -7.4892   -2.4472    1.2279 C.3       1 <0>         0.0589
     14 H3         -6.8779   -3.2998    1.5239 H         1 <0>         0.0653
     15 C9         -8.4430   -2.0881    2.3488 C.2       1 <0>        -0.3925
     16 C10        -8.0171   -1.2265    3.3637 C.2       1 <0>         0.3070
     17 C11        -8.9433   -0.8918    4.5091 C.3       1 <0>        -0.0736
     18 C12       -10.3900   -0.9192    4.0085 C.3       1 <0>        -0.0569
     19 C13       -10.6826   -2.3051    3.4268 C.3       1 <0>        -0.1232
     20 C14        -9.6898   -2.6114    2.3395 C.2       1 <0>         0.3458
     21 O2        -10.0515   -3.4264    1.3318 O.3       1 <0>        -0.5769
     22 C15       -11.3416   -0.6404    5.1737 C.3       1 <0>        -0.1379
     23 C16       -10.5776    0.1429    2.9232 C.3       1 <0>        -0.1464
     24 N2         -6.8209   -0.6706    3.3304 N.2       1 <0>        -0.6033
     25 C17        -6.0375   -0.7404    2.2630 C.2       1 <0>         0.4883
     26 N3         -4.7642   -0.4187    2.3681 N.2       1 <0>        -0.6141
     27 C18        -8.2696   -2.7885   -0.0154 C.ar      1 <0>         0.0680
     28 C19        -9.1238   -1.8524   -0.5708 C.ar      1 <0>        -0.1126
     29 C20        -9.8412   -2.1580   -1.7087 C.ar      1 <0>        -0.0616
     30 C21        -9.7034   -3.4153   -2.3003 C.ar      1 <0>        -0.0677
     31 C22        -8.8392   -4.3550   -1.7347 C.ar      1 <0>        -0.0578
     32 C23        -8.1243   -4.0343   -0.5994 C.ar      1 <0>        -0.1010
     33 C24       -10.4453   -3.7397   -3.4814 C.1       1 <0>         0.2749
     34 N4        -11.0339   -3.9970   -4.4183 N.1       1 <0>        -0.4560
     35 H4          1.0039    1.9031    0.0027 H         1 <0>         0.0556
     36 H5         -0.5459    1.8868   -0.8726 H         1 <0>         0.0565
     37 H6         -0.5289    1.8773    0.9072 H         1 <0>         0.0645
     38 H7          0.5123   -0.3556   -0.8948 H         1 <0>         0.0785
     39 H8          0.5293   -0.3651    0.8851 H         1 <0>         0.0705
     40 H9         -2.4383   -2.4349   -0.1135 H         1 <0>         0.0866
     41 H10        -0.9334   -2.3344   -1.0587 H         1 <0>         0.0578
     42 H11        -0.8628   -2.4894    0.7131 H         1 <0>         0.0553
     43 H12        -8.8191   -1.6264    5.3048 H         1 <0>         0.0907
     44 H13        -8.7081    0.1022    4.8895 H         1 <0>         0.0894
     45 H14       -10.6017   -3.0543    4.2144 H         1 <0>         0.0878
     46 H15       -11.6909   -2.3201    3.0131 H         1 <0>         0.0836
     47 H16       -11.1226    0.3408    5.5948 H         1 <0>         0.0581
     48 H17       -12.3707   -0.6603    4.8150 H         1 <0>         0.0576
     49 H18       -11.2094   -1.4030    5.9412 H         1 <0>         0.0570
     50 H19        -9.9029   -0.0635    2.0924 H         1 <0>         0.0613
     51 H20       -11.6080    0.1216    2.5683 H         1 <0>         0.0558
     52 H21       -10.3557    1.1271    3.3358 H         1 <0>         0.0555
     53 H22        -9.2295   -0.8803   -0.1122 H         1 <0>         0.1115
     54 H23       -10.5082   -1.4267   -2.1408 H         1 <0>         0.1171
     55 H24        -8.7280   -5.3293   -2.1872 H         1 <0>         0.1184
     56 H25        -7.4524   -4.7588   -0.1632 H         1 <0>         0.1143
@<TRIPOS>BOND
     1    1    2 1
     2    1   35 1
     3    1   36 1
     4    1   37 1
     5    2    3 1
     6    2   38 1
     7    2   39 1
     8    3    4 1
     9    3    5 1
    10    3    6 1
    11    5   40 1
    12    5   41 1
    13    5   42 1
    14    6    7 1
    15    7   26 1
    16    7    8 2
    17    8    9 1
    18    9   10 2
    19    9   11 1
    20   11   12 1
    21   11   25 1
    22   11   13 1
    23   13   14 1
    24   13   15 1
    25   13   27 1
    26   15   20 2
    27   15   16 1
    28   16   17 1
    29   16   24 2
    30   17   18 1
    31   17   43 1
    32   17   44 1
    33   18   19 1
    34   18   22 1
    35   18   23 1
    36   19   20 1
    37   19   45 1
    38   19   46 1
    39   20   21 1
    40   22   47 1
    41   22   48 1
    42   22   49 1
    43   23   50 1
    44   23   51 1
    45   23   52 1
    46   24   25 1
    47   25   26 2
    48   27   32 ar
    49   27   28 ar
    50   28   29 ar
    51   28   53 1
    52   29   30 ar
    53   29   54 1
    54   30   31 ar
    55   30   33 1
    56   31   32 ar
    57   31   55 1
    58   32   56 1
    59   33   34 3
@<TRIPOS>MOLECULE
ZINC38892387
   44    48     0     0     0
SMALL
USER_CHARGES

@<TRIPOS>ATOM
      1 C1         -0.0173    1.4248    0.0099 C.3       1 <0>         0.0275
      2 O1          0.0021   -0.0041    0.0020 O.3       1 <0>        -0.3182
      3 C2          0.6258   -0.6184    1.0415 C.ar      1 <0>         0.1281
      4 C3          1.2022    0.1384    2.0513 C.ar      1 <0>        -0.2035
      5 C4          1.8353   -0.4884    3.1070 C.ar      1 <0>        -0.0641
      6 C5          1.8951   -1.8688    3.1577 C.ar      1 <0>        -0.1135
      7 C6          1.3218   -2.6253    2.1523 C.ar      1 <0>        -0.0557
      8 C7          0.6822   -2.0034    1.0976 C.ar      1 <0>        -0.1454
      9 C8          2.5867   -2.5500    4.3104 C.3       1 <0>         0.0662
     10 H1          2.9639   -1.7782    4.9813 H         1 <0>         0.0775
     11 C9          1.5831   -3.3462    5.0433 C.2       1 <0>        -0.2906
     12 C10         1.6977   -4.5793    5.6094 C.2       1 <0>         0.1068
     13 N1          0.6190   -5.0073    6.2643 N.2       1 <0>        -0.5547
     14 C11        -0.4882   -4.2989    6.3109 C.2       1 <0>         0.2814
     15 S1         -2.0076   -4.6944    7.1105 S.3       1 <0>        -0.7197
     16 S2         -0.1018   -2.9223    5.4219 S.3       1 <0>         0.0656
     17 S3          3.1981   -5.5078    5.4168 S.3       1 <0>         0.0380
     18 C12         4.3667   -4.3254    4.7619 C.3       1 <0>        -0.1516
     19 H2          5.1472   -4.8839    4.2452 H         1 <0>         0.1629
     20 C13         3.7811   -3.3254    3.7577 C.3       1 <0>        -0.0795
     21 H3          3.5968   -3.7547    2.7729 H         1 <0>         0.1549
     22 C14         4.9300   -2.2928    3.8138 C.2       1 <0>         0.5332
     23 O2          5.2939   -1.5654    2.9149 O.2       1 <0>        -0.4425
     24 N2          5.4487   -2.3577    5.0576 N.am      1 <0>        -0.5278
     25 C15         5.0414   -3.4343    5.7600 C.2       1 <0>         0.5453
     26 O3          5.1989   -3.6423    6.9439 O.2       1 <0>        -0.4248
     27 C16         6.3180   -1.3874    5.5768 C.ar      1 <0>         0.1279
     28 C17         6.6786   -0.2922    4.8038 C.ar      1 <0>        -0.1292
     29 C18         7.5349    0.6622    5.3172 C.ar      1 <0>        -0.0888
     30 C19         8.0332    0.5272    6.6011 C.ar      1 <0>        -0.0458
     31 C20         7.6755   -0.5639    7.3734 C.ar      1 <0>        -0.0874
     32 C21         6.8146   -1.5177    6.8665 C.ar      1 <0>        -0.1279
     33 Cl1         9.1093    1.7283    7.2438 Cl        1 <0>        -0.0696
     34 H4          1.0053    1.8021    0.0021 H         1 <0>         0.0541
     35 H5         -0.5445    1.7859   -0.8732 H         1 <0>         0.0978
     36 H6         -0.5275    1.7763    0.9067 H         1 <0>         0.0555
     37 H7          1.1564    1.2167    2.0118 H         1 <0>         0.1269
     38 H8          2.2842    0.1003    3.8934 H         1 <0>         0.1195
     39 H9          1.3701   -3.7035    2.1940 H         1 <0>         0.1314
     40 H10         0.2307   -2.5948    0.3148 H         1 <0>         0.1317
     41 H11         6.2902   -0.1866    3.8016 H         1 <0>         0.1623
     42 H12         7.8160    1.5142    4.7161 H         1 <0>         0.1407
     43 H13         8.0660   -0.6673    8.3750 H         1 <0>         0.1417
     44 H14         6.5319   -2.3666    7.4713 H         1 <0>         0.1633
@<TRIPOS>BOND
     1    1    2 1
     2    1   34 1
     3    1   35 1
     4    1   36 1
     5    2    3 1
     6    3    8 ar
     7    3    4 ar
     8    4    5 ar
     9    4   37 1
    10    5    6 ar
    11    5   38 1
    12    6    7 ar
    13    6    9 1
    14    7    8 ar
    15    7   39 1
    16    8   40 1
    17    9   10 1
    18    9   20 1
    19    9   11 1
    20   11   16 1
    21   11   12 2
    22   12   13 1
    23   12   17 1
    24   13   14 2
    25   14   15 1
    26   14   16 1
    27   17   18 1
    28   18   19 1
    29   18   25 1
    30   18   20 1
    31   20   21 1
    32   20   22 1
    33   22   23 2
    34   22   24 am
    35   24   25 am
    36   24   27 1
    37   25   26 2
    38   27   32 ar
    39   27   28 ar
    40   28   29 ar
    41   28   41 1
    42   29   30 ar
    43   29   42 1
    44   30   31 ar
    45   30   33 1
    46   31   32 ar
    47   31   43 1
    48   32   44 1
@<TRIPOS>MOLECULE
ZINC12631588
   43    46     0     0     0
SMALL
USER_CHARGES

@<TRIPOS>ATOM
      1 C1         -0.2593    1.5179   -0.1273 C.3       1 <0>        -0.1478
      2 C2         -0.1840   -0.0101   -0.1045 C.3       1 <0>         0.0514
      3 O1          0.5031   -0.4706   -1.2698 O.3       1 <0>        -0.3190
      4 C3          0.6571   -1.8150   -1.4048 C.ar      1 <0>         0.0947
      5 C4          1.3239   -2.3117   -2.5188 C.ar      1 <0>        -0.0972
      6 C5          1.4864   -3.6910   -2.6636 C.ar      1 <0>        -0.0618
      7 C6          0.9696   -4.5162   -1.6781 C.ar      1 <0>         0.1127
      8 C7          0.3013   -4.0351   -0.5603 C.ar      1 <0>        -0.0573
      9 C8          0.1493   -2.6560   -0.4232 C.ar      1 <0>        -0.1237
     10 C9         -0.0696   -5.2373    0.2079 C.2       1 <0>        -0.0454
     11 C10        -0.7554   -5.2887    1.4091 C.2       1 <0>        -0.0681
     12 C11        -1.1752   -4.1882    2.3106 C.2       1 <0>         0.4934
     13 O2         -0.9047   -2.8962    2.0227 O.3       1 <0>        -0.5569
     14 N1         -1.8110   -4.5222    3.3822 N.2       1 <0>        -0.6160
     15 C12        -2.0892   -5.8038    3.6843 C.2       1 <0>         0.3639
     16 S1         -1.3908   -6.7004    2.3055 S.3       1 <0>        -0.0844
     17 S2         -2.9156   -6.4224    5.0501 S.2       1 <0>        -0.4801
     18 C13         0.4501   -6.3813   -0.5832 C.2       1 <0>         0.5693
     19 O3          0.3488   -7.5573   -0.2887 O.2       1 <0>        -0.4772
     20 N2          1.0523   -5.8917   -1.6833 N.am      1 <0>        -0.5353
     21 C14         1.7426   -6.5140   -2.8255 C.3       1 <0>         0.2099
     22 C15         2.3055   -5.6128   -3.9006 C.2       1 <0>        -0.1581
     23 C16         2.1817   -4.2914   -3.8180 C.2       1 <0>        -0.0578
     24 C17         2.7502   -3.4099   -4.9000 C.3       1 <0>        -0.1144
     25 C18         0.7591   -7.4764   -3.4943 C.3       1 <0>        -0.1617
     26 C19         2.8964   -7.3516   -2.2706 C.3       1 <0>        -0.1620
     27 H1          0.7493    1.9311   -0.1415 H         1 <0>         0.0627
     28 H2         -0.7973    1.8419   -1.0181 H         1 <0>         0.0623
     29 H3         -0.7833    1.8691    0.7616 H         1 <0>         0.0775
     30 H4          0.3540   -0.3341    0.7864 H         1 <0>         0.0691
     31 H5         -1.1925   -0.4234   -0.0902 H         1 <0>         0.0655
     32 H6          1.7127   -1.6363   -3.2664 H         1 <0>         0.1395
     33 H7         -0.3613   -2.2462    0.4356 H         1 <0>         0.1877
     34 H8          2.8156   -6.0480   -4.7472 H         1 <0>         0.1439
     35 H9          3.7781   -3.1462   -4.6511 H         1 <0>         0.0736
     36 H10         2.7320   -3.9435   -5.8503 H         1 <0>         0.0686
     37 H11         2.1518   -2.5025   -4.9813 H         1 <0>         0.0712
     38 H12        -0.1158   -6.9229   -3.8355 H         1 <0>         0.0603
     39 H13         1.2415   -7.9548   -4.3467 H         1 <0>         0.0725
     40 H14         0.4507   -8.2372   -2.7772 H         1 <0>         0.0710
     41 H15         2.5012   -8.1175   -1.6032 H         1 <0>         0.0710
     42 H16         3.4291   -7.8271   -3.0942 H         1 <0>         0.0725
     43 H17         3.5809   -6.7071   -1.7191 H         1 <0>         0.0601
@<TRIPOS>BOND
     1    1    2 1
     2    1   27 1
     3    1   28 1
     4    1   29 1
     5    2    3 1
     6    2   30 1
     7    2   31 1
     8    3    4 1
     9    4    9 ar
    10    4    5 ar
    11    5    6 ar
    12    5   32 1
    13    6   23 1
    14    6    7 ar
    15    7   20 1
    16    7    8 ar
    17    8    9 ar
    18    8   10 1
    19    9   33 1
    20   10   11 2
    21   10   18 1
    22   11   16 1
    23   11   12 1
    24   12   13 1
    25   12   14 2
    26   14   15 1
    27   15   16 1
    28   15   17 2
    29   18   19 2
    30   18   20 am
    31   20   21 1
    32   21   22 1
    33   21   25 1
    34   21   26 1
    35   22   23 2
    36   22   34 1
    37   23   24 1
    38   24   35 1
    39   24   36 1
    40   24   37 1
    41   25   38 1
    42   25   39 1
    43   25   40 1
    44   26   41 1
    45   26   42 1
    46   26   43 1
@<TRIPOS>MOLECULE
ZINC39994677
   34    35     0     0     0
SMALL
USER_CHARGES

@<TRIPOS>ATOM
      1 C1         -0.0187    1.5258    0.0104 C.3       1 <0>        -0.1383
      2 C2          0.0021   -0.0041    0.0020 C.3       1 <0>         0.0231
      3 C3         -1.4333   -0.5336    0.0129 C.3       1 <0>        -0.1383
      4 C4          0.7074   -0.4901   -1.2379 C.2       1 <0>        -0.0183
      5 N1          0.4207   -0.2875   -2.5097 N.2       1 <0>        -0.2473
      6 N2          1.1201   -0.7702   -3.4418 N.2       1 <0>        -0.3489
      7 C5          2.1956   -1.5173   -3.1934 C.2       1 <0>         0.3690
      8 S1          2.1768   -1.4996   -1.4030 S.3       1 <0>        -0.1461
      9 N3          3.0613   -2.1157   -4.0524 N.2       1 <0>        -0.6026
     10 C6          2.8902   -1.9927   -5.3501 C.2       1 <0>         0.4638
     11 O1          1.8522   -1.2704   -5.8298 O.3       1 <0>        -0.6234
     12 C7          3.8270   -2.6401   -6.2796 C.2       1 <0>         0.0090
     13 C8          3.6477   -2.5113   -7.6387 C.2       1 <0>        -0.0240
     14 C9          4.5818   -3.1570   -8.5655 C.ar      1 <0>        -0.0502
     15 C10         5.9648   -2.9922   -8.4024 C.ar      1 <0>        -0.0174
     16 C11         6.8360   -3.6044   -9.2797 C.ar      1 <0>        -0.1037
     17 C12         6.3489   -4.3791  -10.3183 C.ar      1 <0>        -0.0929
     18 C13         4.9855   -4.5477  -10.4876 C.ar      1 <0>        -0.1074
     19 C14         4.0984   -3.9481   -9.6176 C.ar      1 <0>        -0.0092
     20 Cl1         2.3892   -4.1668   -9.8286 Cl        1 <0>        -0.0421
     21 Cl2         6.5787   -2.0208   -7.1012 Cl        1 <0>        -0.0336
     22 C15         4.9260   -3.4048   -5.7716 C.1       1 <0>         0.2698
     23 N4          5.7978   -4.0115   -5.3686 N.1       1 <0>        -0.4215
     24 H1          1.0039    1.9031    0.0027 H         1 <0>         0.0538
     25 H2         -0.5459    1.8868   -0.8726 H         1 <0>         0.0639
     26 H3         -0.5289    1.8773    0.9072 H         1 <0>         0.0582
     27 H4          0.5293   -0.3651    0.8851 H         1 <0>         0.0822
     28 H5         -1.9605   -0.1726   -0.8702 H         1 <0>         0.0639
     29 H6         -1.4185   -1.6235    0.0069 H         1 <0>         0.0539
     30 H7         -1.9435   -0.1821    0.9097 H         1 <0>         0.0582
     31 H8          2.8189   -1.9346   -8.0218 H         1 <0>         0.1700
     32 H9          7.9015   -3.4784   -9.1560 H         1 <0>         0.1414
     33 H10         7.0372   -4.8548  -11.0012 H         1 <0>         0.1424
     34 H11         4.6150   -5.1540  -11.3010 H         1 <0>         0.1426
@<TRIPOS>BOND
     1    1    2 1
     2    1   24 1
     3    1   25 1
     4    1   26 1
     5    2    3 1
     6    2    4 1
     7    2   27 1
     8    3   28 1
     9    3   29 1
    10    3   30 1
    11    4    8 1
    12    4    5 2
    13    5    6 1
    14    6    7 2
    15    7    8 1
    16    7    9 1
    17    9   10 2
    18   10   11 1
    19   10   12 1
    20   12   13 2
    21   12   22 1
    22   13   14 1
    23   13   31 1
    24   14   19 ar
    25   14   15 ar
    26   15   16 ar
    27   15   21 1
    28   16   17 ar
    29   16   32 1
    30   17   18 ar
    31   17   33 1
    32   18   19 ar
    33   18   34 1
    34   19   20 1
    35   22   23 3
@<TRIPOS>MOLECULE
ZINC55588668
   43    44     0     0     0
SMALL
USER_CHARGES

@<TRIPOS>ATOM
      1 C1          0.9472    2.1200    0.5320 C.3       1 <0>        -0.1122
      2 C2          0.5857    0.6680    0.3531 C.ar      1 <0>        -0.0742
      3 C3         -0.5874    0.3251   -0.2950 C.ar      1 <0>        -0.1339
      4 C4         -0.9241   -1.0025   -0.4621 C.ar      1 <0>        -0.0849
      5 C5         -0.0782   -2.0001    0.0240 C.ar      1 <0>        -0.0862
      6 C6          1.1037   -1.6476    0.6764 C.ar      1 <0>        -0.0361
      7 C7          1.4313   -0.3164    0.8327 C.ar      1 <0>        -0.1216
      8 C8         -0.4330   -3.4243   -0.1511 C.2       1 <0>         0.0209
      9 C9         -0.2852   -4.2729    0.8566 C.2       1 <0>        -0.6911
     10 S1         -0.0999   -3.6653    2.5001 S.o2      1 <0>         2.5907
     11 O1          1.0624   -4.2848    3.0335 O.2       1 <0>        -1.0356
     12 O2         -0.2468   -2.2536    2.4302 O.2       1 <0>        -1.0067
     13 N1         -1.3839   -4.2318    3.3793 N.2       1 <0>        -1.0894
     14 C10        -1.5020   -3.9057    4.7333 C.ar      1 <0>         0.2840
     15 C11        -0.5442   -3.1010    5.3404 C.ar      1 <0>        -0.2338
     16 C12        -0.6554   -2.7758    6.6786 C.ar      1 <0>        -0.0550
     17 C13        -1.7198   -3.2478    7.4227 C.ar      1 <0>        -0.0939
     18 C14        -2.6873   -4.0565    6.8217 C.ar      1 <0>        -0.0797
     19 C15        -2.5765   -4.3799    5.4687 C.ar      1 <0>        -0.1444
     20 C16        -3.8270   -4.5631    7.6144 C.2       1 <0>         0.5701
     21 O3         -3.6265   -5.1635    8.6522 O.2       1 <0>        -0.5282
     22 N2         -5.0888   -4.3595    7.1867 N.am      1 <0>        -0.6213
     23 C17        -6.2205   -4.7683    8.0224 C.3       1 <0>         0.0881
     24 C18        -5.3287   -3.7294    5.8861 C.3       1 <0>         0.0778
     25 Cl1        -1.8542   -2.8364    9.1039 Cl        1 <0>        -0.0938
     26 H1          1.5302    2.4575   -0.3249 H         1 <0>         0.0658
     27 H2          0.0367    2.7143    0.6088 H         1 <0>         0.0638
     28 H3          1.5362    2.2384    1.4415 H         1 <0>         0.0648
     29 H4         -1.2412    1.0982   -0.6708 H         1 <0>         0.1176
     30 H5         -1.8406   -1.2689   -0.9676 H         1 <0>         0.1192
     31 H6          1.7627   -2.4150    1.0548 H         1 <0>         0.1063
     32 H7          2.3477   -0.0422    1.3341 H         1 <0>         0.1187
     33 H8         -0.8127   -3.7735   -1.0999 H         1 <0>         0.1244
     34 H9         -0.2784   -5.3367    0.6702 H         1 <0>         0.1514
     35 H10         0.2899   -2.7292    4.7639 H         1 <0>         0.1104
     36 H11         0.0921   -2.1510    7.1446 H         1 <0>         0.1204
     37 H12        -3.3237   -5.0011    4.9972 H         1 <0>         0.1283
     38 H13        -6.5040   -3.9451    8.6782 H         1 <0>         0.0503
     39 H14        -7.0649   -5.0334    7.3862 H         1 <0>         0.0661
     40 H15        -5.9345   -5.6307    8.6247 H         1 <0>         0.0750
     41 H16        -4.9627   -4.3817    5.0933 H         1 <0>         0.0708
     42 H17        -6.3978   -3.5625    5.7549 H         1 <0>         0.0699
     43 H18        -4.8040   -2.7749    5.8425 H         1 <0>         0.0674
@<TRIPOS>BOND
     1    1    2 1
     2    1   26 1
     3    1   27 1
     4    1   28 1
     5    2    7 ar
     6    2    3 ar
     7    3    4 ar
     8    3   29 1
     9    4    5 ar
    10    4   30 1
    11    5    6 ar
    12    5    8 1
    13    6    7 ar
    14    6   31 1
    15    7   32 1
    16    8    9 2
    17    8   33 1
    18    9   10 1
    19    9   34 1
    20   10   11 2
    21   10   12 2
    22   10   13 1
    23   13   14 1
    24   14   19 ar
    25   14   15 ar
    26   15   16 ar
    27   15   35 1
    28   16   17 ar
    29   16   36 1
    30   17   18 ar
    31   17   25 1
    32   18   19 ar
    33   18   20 1
    34   19   37 1
    35   20   21 2
    36   20   22 am
    37   22   23 1
    38   22   24 1
    39   23   38 1
    40   23   39 1
    41   23   40 1
    42   24   41 1
    43   24   42 1
    44   24   43 1
@<TRIPOS>MOLECULE
ZINC06035420
   43    46     0     0     0
SMALL
USER_CHARGES

@<TRIPOS>ATOM
      1 C1          0.0597    1.5205   -0.0054 C.3       1 <0>        -0.1665
      2 C2         -0.0076   -0.0080    0.0031 C.3       1 <0>         0.1360
      3 H1         -1.0457   -0.3401    0.0130 H         1 <0>         0.0945
      4 C3          0.7240   -0.5809   -1.2217 C.3       1 <0>        -0.0854
      5 C4          1.8371   -1.4235   -0.6406 C.ar      1 <0>        -0.1282
      6 C5          2.8172   -2.1789   -1.2556 C.ar      1 <0>        -0.0737
      7 C6          3.7387   -2.8732   -0.4943 C.ar      1 <0>        -0.1359
      8 C7          3.6777   -2.8102    0.8859 C.ar      1 <0>        -0.0834
      9 C8          2.7017   -2.0580    1.5037 C.ar      1 <0>        -0.1628
     10 C9          1.7674   -1.3539    0.7415 C.ar      1 <0>         0.1352
     11 N1          0.7080   -0.5419    1.1651 N.am      1 <0>        -0.5404
     12 C10         0.3931   -0.2871    2.4505 C.2       1 <0>         0.5519
     13 O1         -0.5100    0.4788    2.7133 O.2       1 <0>        -0.4983
     14 C11         1.1630   -0.9536    3.5614 C.3       1 <0>        -0.1171
     15 H2          2.2316   -0.8724    3.3624 H         1 <0>         0.1397
     16 C12         0.7696   -2.4301    3.6399 C.3       1 <0>        -0.1575
     17 S1          0.7778   -0.1407    5.1365 S.3       1 <0>         0.0849
     18 C13         1.8510   -0.9237    6.2940 C.2       1 <0>         0.2576
     19 N2          2.7161   -1.8761    6.0229 N.2       1 <0>        -0.5304
     20 H3          1.4164    0.0155    8.1010 H         1 <0>         0.4499
     21 C14         3.3608   -2.2326    7.1450 C.2       1 <0>         0.3202
     22 N3          2.9081   -1.5058    8.1439 N.2       1 <0>        -0.2814
     23 N4          1.9325   -0.6461    7.6143 N.pl3     1 <0>        -0.4546
     24 C15         4.4075   -3.2720    7.2426 C.2       1 <0>        -0.0957
     25 C16         5.1036   -3.6948    8.3431 C.2       1 <0>        -0.1093
     26 C17         6.0435   -4.6905    8.1901 C.2       1 <0>        -0.1631
     27 C18         6.2508   -5.2207    6.9575 C.2       1 <0>        -0.1661
     28 S2          5.0874   -4.3081    5.9573 S.3       1 <0>         0.1150
     29 H4          1.1022    1.8381   -0.0279 H         1 <0>         0.0610
     30 H5         -0.4554    1.9019   -0.8870 H         1 <0>         0.0761
     31 H6         -0.4196    1.9103    0.8926 H         1 <0>         0.0764
     32 H7          0.0485   -1.1989   -1.8133 H         1 <0>         0.0946
     33 H8          1.1350    0.2246   -1.8302 H         1 <0>         0.0962
     34 H9          2.8632   -2.2273   -2.3335 H         1 <0>         0.1281
     35 H10         4.5041   -3.4635   -0.9760 H         1 <0>         0.1297
     36 H11         4.3969   -3.3525    1.4817 H         1 <0>         0.1326
     37 H12         2.6594   -2.0133    2.5819 H         1 <0>         0.1422
     38 H13         1.3265   -2.9123    4.4433 H         1 <0>         0.0942
     39 H14        -0.2989   -2.5113    3.8389 H         1 <0>         0.0752
     40 H15         1.0011   -2.9186    2.6934 H         1 <0>         0.0839
     41 H16         4.9197   -3.2559    9.3126 H         1 <0>         0.1412
     42 H17         6.6085   -5.0444    9.0397 H         1 <0>         0.1411
     43 H18         6.9393   -5.9976    6.6596 H         1 <0>         0.1922
@<TRIPOS>BOND
     1    1    2 1
     2    1   29 1
     3    1   30 1
     4    1   31 1
     5    2    3 1
     6    2   11 1
     7    2    4 1
     8    4    5 1
     9    4   32 1
    10    4   33 1
    11    5   10 ar
    12    5    6 ar
    13    6    7 ar
    14    6   34 1
    15    7    8 ar
    16    7   35 1
    17    8    9 ar
    18    8   36 1
    19    9   10 ar
    20    9   37 1
    21   10   11 1
    22   11   12 am
    23   12   13 2
    24   12   14 1
    25   14   15 1
    26   14   16 1
    27   14   17 1
    28   16   38 1
    29   16   39 1
    30   16   40 1
    31   17   18 1
    32   18   19 2
    33   18   23 1
    34   19   21 1
    35   20   23 1
    36   21   24 1
    37   21   22 2
    38   22   23 1
    39   24   28 1
    40   24   25 2
    41   25   26 1
    42   25   41 1
    43   26   27 2
    44   26   42 1
    45   27   28 1
    46   27   43 1
@<TRIPOS>MOLECULE
ZINC66732824
   46    48     0     0     0
SMALL
USER_CHARGES

@<TRIPOS>ATOM
      1 C1         -0.9413    0.7947   -0.4087 C.3       1 <0>        -0.1105
      2 C2         -0.0584   -0.4095   -0.2055 C.ar      1 <0>        -0.0674
      3 C3          0.7037   -0.8941   -1.2530 C.ar      1 <0>        -0.1485
      4 C4          1.5127   -1.9986   -1.0697 C.ar      1 <0>        -0.0666
      5 C5          1.5673   -2.6281    0.1628 C.ar      1 <0>        -0.1272
      6 C6          0.8063   -2.1411    1.2137 C.ar      1 <0>         0.1738
      7 C7         -0.0048   -1.0270    1.0278 C.ar      1 <0>        -0.1581
      8 N1          0.8480   -2.7520    2.4737 N.am      1 <0>        -0.5518
      9 C8          1.4632   -4.0804    2.5986 C.3       1 <0>         0.0920
     10 C9          2.7751   -4.0660    1.8031 C.3       1 <0>        -0.1378
     11 C10         2.4553   -3.8332    0.3267 C.3       1 <0>        -0.0745
     12 C11         0.3329   -2.1313    3.5535 C.2       1 <0>         0.5716
     13 O1         -0.0602   -0.9842    3.4653 O.2       1 <0>        -0.5142
     14 C12         0.2459   -2.8446    4.8439 C.ar      1 <0>        -0.1116
     15 C13        -0.0107   -4.2172    4.8694 C.ar      1 <0>        -0.1785
     16 C14        -0.0915   -4.8818    6.0752 C.ar      1 <0>        -0.1043
     17 C15         0.0810   -4.1922    7.2636 C.ar      1 <0>        -0.0332
     18 C16         0.3372   -2.8236    7.2480 C.ar      1 <0>         0.2572
     19 C17         0.4257   -2.1498    6.0413 C.ar      1 <0>        -0.0997
     20 N2          0.5105   -2.1306    8.4506 N.2       1 <0>        -1.0964
     21 S1          0.4109   -2.9377    9.8931 S.o2      1 <0>         2.5429
     22 O2         -0.9308   -3.4015    9.9573 O.2       1 <0>        -1.0238
     23 O3          1.4946   -3.8565    9.8701 O.2       1 <0>        -1.0245
     24 C18         0.6944   -1.6686   11.1579 C.3       1 <0>        -0.6478
     25 F1          0.0001   -4.8490    8.4414 F         1 <0>        -0.1330
     26 C19         2.3394   -2.5213   -2.2162 C.3       1 <0>        -0.1116
     27 H1         -0.3780    1.7003   -0.1833 H         1 <0>         0.0690
     28 H2         -1.2805    0.8260   -1.4441 H         1 <0>         0.0624
     29 H3         -1.8039    0.7289    0.2544 H         1 <0>         0.0667
     30 H4          0.6659   -0.4081   -2.2167 H         1 <0>         0.1162
     31 H5         -0.5965   -0.6473    1.8477 H         1 <0>         0.1672
     32 H6          1.6697   -4.2946    3.6472 H         1 <0>         0.1148
     33 H7          0.7929   -4.8374    2.1915 H         1 <0>         0.0757
     34 H8          3.4152   -3.2631    2.1689 H         1 <0>         0.0727
     35 H9          3.2836   -5.0229    1.9201 H         1 <0>         0.0848
     36 H10         1.9482   -4.7109   -0.0741 H         1 <0>         0.0738
     37 H11         3.3837   -3.6732   -0.2216 H         1 <0>         0.0769
     38 H12        -0.1462   -4.7583    3.9446 H         1 <0>         0.1218
     39 H13        -0.2904   -5.9432    6.0926 H         1 <0>         0.1221
     40 H14         0.6284   -1.0891    6.0268 H         1 <0>         0.1315
     41 H15        -0.0696   -0.8957   11.0748 H         1 <0>         0.1142
     42 H16         0.6446   -2.1239   12.1470 H         1 <0>         0.1017
     43 H17         1.6787   -1.2237   11.0119 H         1 <0>         0.1140
     44 H18         3.3140   -2.0331   -2.2136 H         1 <0>         0.0681
     45 H19         2.4720   -3.5977   -2.1074 H         1 <0>         0.0663
     46 H20         1.8303   -2.3111   -3.1568 H         1 <0>         0.0637
@<TRIPOS>BOND
     1    1    2 1
     2    1   27 1
     3    1   28 1
     4    1   29 1
     5    2    7 ar
     6    2    3 ar
     7    3    4 ar
     8    3   30 1
     9    4    5 ar
    10    4   26 1
    11    5   11 1
    12    5    6 ar
    13    6    7 ar
    14    6    8 1
    15    7   31 1
    16    8    9 1
    17    8   12 am
    18    9   10 1
    19    9   32 1
    20    9   33 1
    21   10   11 1
    22   10   34 1
    23   10   35 1
    24   11   36 1
    25   11   37 1
    26   12   13 2
    27   12   14 1
    28   14   19 ar
    29   14   15 ar
    30   15   16 ar
    31   15   38 1
    32   16   17 ar
    33   16   39 1
    34   17   18 ar
    35   17   25 1
    36   18   19 ar
    37   18   20 1
    38   19   40 1
    39   20   21 1
    40   21   22 2
    41   21   23 2
    42   21   24 1
    43   24   41 1
    44   24   42 1
    45   24   43 1
    46   26   44 1
    47   26   45 1
    48   26   46 1
@<TRIPOS>MOLECULE
ZINC05730257
   42    44     0     0     0
SMALL
USER_CHARGES
4-hydroxy-3-[(7S)-7-(2-methoxyphenyl)-2,3,6,7-tetrahydro-1,4-thiazepin-5-yl]-6-methyl-pyran-2-one
@<TRIPOS>ATOM
      1 C1          2.4808    3.9615   -0.0013 C.3       1 <0>        -0.1026
      2 C2          1.1563    3.2428    0.0080 C.2       1 <0>         0.1086
      3 C3          0.0170    3.9638    0.0222 C.2       1 <0>        -0.2660
      4 C4         -1.2298    3.3093    0.0306 C.2       1 <0>         0.3487
      5 C5         -1.2498    1.9070    0.0183 C.2       1 <0>        -0.4552
      6 C6         -0.0144    1.2141    0.0087 C.2       1 <0>         0.5111
      7 O1          0.0021   -0.0041    0.0020 O.2       1 <0>        -0.5478
      8 O2          1.1396    1.9033    0.0014 O.3       1 <0>        -0.2937
      9 C7         -2.5211    1.1745    0.0204 C.2       1 <0>         0.3551
     10 N1         -2.9941    0.8926    1.1648 N.2       1 <0>        -0.5523
     11 C8         -4.2639    0.2455    1.4498 C.3       1 <0>         0.0493
     12 C9         -4.3616   -1.1077    0.7337 C.3       1 <0>        -0.1066
     13 S1         -5.1760   -0.8224   -0.8679 S.3       1 <0>        -0.2492
     14 C10        -4.6239    0.8604   -1.2959 C.3       1 <0>        -0.0069
     15 H1         -4.9153    1.7141   -0.6665 H         1 <0>         0.1122
     16 C11        -3.0936    0.8623   -1.3248 C.3       1 <0>        -0.1124
     17 C12        -5.1592    1.2439   -2.6515 C.ar      1 <0>        -0.0980
     18 C13        -5.4729    0.2639   -3.5735 C.ar      1 <0>        -0.0699
     19 C14        -5.9685    0.6148   -4.8154 C.ar      1 <0>        -0.1620
     20 C15        -6.1416    1.9474   -5.1420 C.ar      1 <0>        -0.0832
     21 C16        -5.8246    2.9311   -4.2257 C.ar      1 <0>        -0.2128
     22 C17        -5.3320    2.5812   -2.9766 C.ar      1 <0>         0.1431
     23 O3         -5.0188    3.5472   -2.0734 O.3       1 <0>        -0.2902
     24 C18        -5.2223    4.9029   -2.4767 C.3       1 <0>         0.0317
     25 O4         -2.3813    4.0166    0.0449 O.3       1 <0>        -0.6530
     26 H2          2.3085    5.0479    0.0059 H         1 <0>         0.0866
     27 H3          3.0416    3.6851   -0.9064 H         1 <0>         0.0784
     28 H4          3.0591    3.6761    0.8898 H         1 <0>         0.0785
     29 H5          0.0606    5.0429    0.0276 H         1 <0>         0.1305
     30 H6         -4.3558    0.0796    2.5333 H         1 <0>         0.0853
     31 H7         -5.0881    0.8878    1.1060 H         1 <0>         0.0621
     32 H8         -3.3516   -1.5168    0.5835 H         1 <0>         0.0916
     33 H9         -4.9523   -1.8049    1.3461 H         1 <0>         0.1029
     34 H10        -2.7599    1.6192   -2.0499 H         1 <0>         0.0885
     35 H11        -2.7501   -0.1315   -1.6478 H         1 <0>         0.0862
     36 H12        -5.3347   -0.7774   -3.3223 H         1 <0>         0.1373
     37 H13        -6.2170   -0.1528   -5.5333 H         1 <0>         0.1215
     38 H14        -6.5248    2.2192   -6.1145 H         1 <0>         0.1209
     39 H15        -5.9596    3.9716   -4.4813 H         1 <0>         0.1273
     40 H16        -4.9310    5.5768   -1.6575 H         1 <0>         0.1043
     41 H17        -6.2840    5.0579   -2.7191 H         1 <0>         0.0478
     42 H18        -4.6085    5.1176   -3.3639 H         1 <0>         0.0524
@<TRIPOS>BOND
     1    1    2 1
     2    1   26 1
     3    1   27 1
     4    1   28 1
     5    2    8 1
     6    2    3 2
     7    3    4 1
     8    3   29 1
     9    4    5 2
    10    4   25 1
    11    5    6 1
    12    5    9 1
    13    6    7 2
    14    6    8 1
    15    9   16 1
    16    9   10 2
    17   10   11 1
    18   11   12 1
    19   11   30 1
    20   11   31 1
    21   12   13 1
    22   12   32 1
    23   12   33 1
    24   13   14 1
    25   14   15 1
    26   14   16 1
    27   14   17 1
    28   16   34 1
    29   16   35 1
    30   17   22 ar
    31   17   18 ar
    32   18   19 ar
    33   18   36 1
    34   19   20 ar
    35   19   37 1
    36   20   21 ar
    37   20   38 1
    38   21   22 ar
    39   21   39 1
    40   22   23 1
    41   23   24 1
    42   24   40 1
    43   24   41 1
    44   24   42 1
@<TRIPOS>MOLECULE
ZINC37575936
   27    28     0     0     0
SMALL
USER_CHARGES

@<TRIPOS>ATOM
      1 C1         -0.0184    1.5028    0.0103 C.3       1 <0>        -0.1153
      2 C2          0.0021   -0.0041    0.0020 C.ar      1 <0>        -0.0486
      3 C3          0.0058   -0.6887   -1.1992 C.ar      1 <0>        -0.1346
      4 C4          0.0245   -2.0707   -1.2074 C.ar      1 <0>        -0.0229
      5 C5          0.0396   -2.7691   -0.0145 C.ar      1 <0>        -0.6109
      6 C6          0.0363   -2.0847    1.1873 C.ar      1 <0>         0.0083
      7 C7          0.0229   -0.7013    1.1950 C.ar      1 <0>        -0.1211
      8 Br1         0.0562   -3.0394    2.8195 Br        1 <0>        -0.0150
      9 S1          0.0623   -4.5309   -0.0251 S.o2      1 <0>         2.6193
     10 O1         -0.9533   -4.9556    0.8734 O.2       1 <0>        -0.9965
     11 O2          0.0876   -4.9285   -1.3891 O.2       1 <0>        -1.0185
     12 N1          1.5056   -5.0060    0.6333 N.2       1 <0>        -1.0494
     13 C8          1.8029   -6.3584    0.7538 C.ar      1 <0>         0.4037
     14 C9          3.0143   -6.7604    1.3127 C.ar      1 <0>         0.0037
     15 N2          3.2923   -8.0450    1.4252 N.ar      1 <0>        -0.4216
     16 C10         2.4229   -8.9506    1.0083 C.ar      1 <0>        -0.0884
     17 C11         1.2207   -8.5560    0.4536 C.ar      1 <0>         0.1052
     18 N3          0.9318   -7.2702    0.3422 N.ar      1 <0>        -0.5651
     19 H1          1.0042    1.8801    0.0026 H         1 <0>         0.0759
     20 H2         -0.5455    1.8639   -0.8728 H         1 <0>         0.0702
     21 H3         -0.5286    1.8543    0.9071 H         1 <0>         0.0696
     22 H4         -0.0063   -0.1434   -2.1314 H         1 <0>         0.1318
     23 H5          0.0271   -2.6051   -2.1460 H         1 <0>         0.1458
     24 H6          0.0241   -0.1664    2.1333 H         1 <0>         0.1347
     25 H7          3.7247   -6.0215    1.6530 H         1 <0>         0.1542
     26 H8          2.6537  -10.0015    1.1015 H         1 <0>         0.1429
     27 H9          0.5138   -9.2987    0.1145 H         1 <0>         0.1427
@<TRIPOS>BOND
     1    1    2 1
     2    1   19 1
     3    1   20 1
     4    1   21 1
     5    2    7 ar
     6    2    3 ar
     7    3    4 ar
     8    3   22 1
     9    4    5 ar
    10    4   23 1
    11    5    6 ar
    12    5    9 1
    13    6    7 ar
    14    6    8 1
    15    7   24 1
    16    9   10 2
    17    9   11 2
    18    9   12 1
    19   12   13 1
    20   13   18 ar
    21   13   14 ar
    22   14   15 ar
    23   14   25 1
    24   15   16 ar
    25   16   17 ar
    26   16   26 1
    27   17   18 ar
    28   17   27 1
@<TRIPOS>MOLECULE
ZINC48486738
   31    31     0     0     0
SMALL
USER_CHARGES

@<TRIPOS>ATOM
      1 C1          0.8639    1.4452   -0.0364 C.3       1 <0>        -0.1035
      2 C2          0.6483   -0.0463   -0.0321 C.ar      1 <0>        -0.1369
      3 C3          0.6470   -0.7468   -1.2244 C.ar      1 <0>        -0.0640
      4 C4          0.4491   -2.1140   -1.2237 C.ar      1 <0>        -0.2076
      5 C5          0.2520   -2.7847   -0.0255 C.ar      1 <0>         0.1657
      6 C6          0.2541   -2.0798    1.1700 C.ar      1 <0>        -0.1285
      7 C7          0.4577   -0.7125    1.1641 C.ar      1 <0>        -0.0538
      8 Br1        -0.0149   -2.9896    2.8058 Br        1 <0>        -0.0367
      9 O1          0.0567   -4.1298   -0.0224 O.3       1 <0>        -0.2691
     10 C8         -0.0525   -4.7724   -1.2941 C.3       1 <0>         0.1146
     11 H1         -0.5624   -4.1099   -1.9934 H         1 <0>         0.0893
     12 C9          1.3460   -5.0948   -1.8243 C.3       1 <0>        -0.1647
     13 C10        -0.8401   -6.0487   -1.1460 C.2       1 <0>         0.4941
     14 O2         -0.8847   -6.6794    0.0458 O.3       1 <0>        -0.6895
     15 N1         -1.4719   -6.5382   -2.1591 N.2       1 <0>        -1.0736
     16 S1         -2.3374   -7.9406   -1.9964 S.o2      1 <0>         2.5755
     17 O3         -1.3670   -8.9319   -1.6884 O.2       1 <0>        -1.0033
     18 O4         -3.3690   -7.6248   -1.0716 O.2       1 <0>        -1.0014
     19 C11        -3.0431   -8.2461   -3.6393 C.3       1 <0>        -0.6514
     20 H2          1.9299    1.6584    0.0426 H         1 <0>         0.0657
     21 H3          0.4771    1.8656   -0.9647 H         1 <0>         0.0641
     22 H4          0.3406    1.8904    0.8099 H         1 <0>         0.0635
     23 H5          0.8005   -0.2245   -2.1571 H         1 <0>         0.1272
     24 H6          0.4476   -2.6603   -2.1553 H         1 <0>         0.1412
     25 H7          0.4635   -0.1637    2.0943 H         1 <0>         0.1331
     26 H8          1.2627   -5.5850   -2.7943 H         1 <0>         0.0808
     27 H9          1.9157   -4.1717   -1.9314 H         1 <0>         0.0598
     28 H10         1.8559   -5.7574   -1.1250 H         1 <0>         0.0698
     29 H11        -2.2382   -8.3512   -4.3667 H         1 <0>         0.1168
     30 H12        -3.6339   -9.1619   -3.6164 H         1 <0>         0.1062
     31 H13        -3.6813   -7.4090   -3.9220 H         1 <0>         0.1169
@<TRIPOS>BOND
     1    1    2 1
     2    1   20 1
     3    1   21 1
     4    1   22 1
     5    2    7 ar
     6    2    3 ar
     7    3    4 ar
     8    3   23 1
     9    4    5 ar
    10    4   24 1
    11    5    6 ar
    12    5    9 1
    13    6    7 ar
    14    6    8 1
    15    7   25 1
    16    9   10 1
    17   10   11 1
    18   10   12 1
    19   10   13 1
    20   12   26 1
    21   12   27 1
    22   12   28 1
    23   13   14 1
    24   13   15 2
    25   15   16 1
    26   16   17 2
    27   16   18 2
    28   16   19 1
    29   19   29 1
    30   19   30 1
    31   19   31 1
@<TRIPOS>MOLECULE
ZINC62825647
   20    21     0     0     0
SMALL
USER_CHARGES

@<TRIPOS>ATOM
      1 C1         -0.0169    1.3935    0.0097 C.ar      1 <0>        -0.0294
      2 C2          1.1691    2.0974    0.0022 C.ar      1 <0>        -0.0908
      3 C3          2.3811    1.4255   -0.0130 C.ar      1 <0>        -0.0595
      4 C4          2.4148    0.0440   -0.0208 C.ar      1 <0>        -0.0961
      5 C5          1.2314   -0.6807   -0.0138 C.ar      1 <0>         0.1789
      6 C6          0.0021   -0.0041    0.0020 C.ar      1 <0>        -0.1096
      7 C7         -1.2605   -0.7620    0.0105 C.2       1 <0>         0.5189
      8 O1         -2.3301   -0.1685    0.0243 O.co2     1 <0>        -0.6662
      9 O2         -1.2397   -1.9851    0.0037 O.co2     1 <0>        -0.6557
     10 N1          1.2638   -2.0778   -0.0226 N.pl3     1 <0>        -0.4201
     11 C8          0.8193   -2.9051   -1.0114 C.2       1 <0>         0.2436
     12 N2          1.0372   -4.1298   -0.6168 N.2       1 <0>        -0.3156
     13 N3          1.5850   -4.1244    0.5460 N.2       1 <0>        -0.2979
     14 C9          1.7516   -2.8959    0.9535 C.2       1 <0>         0.1608
     15 Br1         4.0756   -0.8600   -0.0415 Br        1 <0>        -0.0297
     16 Br2         1.1413    3.9882    0.0119 Br        1 <0>        -0.0418
     17 H1         -0.9589    1.9215    0.0260 H         1 <0>         0.1552
     18 H2          3.3048    1.9850   -0.0192 H         1 <0>         0.1466
     19 H3          0.3706   -2.6033   -1.9462 H         1 <0>         0.2039
     20 H4          2.1911   -2.5851    1.8898 H         1 <0>         0.2045
@<TRIPOS>BOND
     1    1    6 ar
     2    1    2 ar
     3    1   17 1
     4    2    3 ar
     5    2   16 1
     6    3    4 ar
     7    3   18 1
     8    4    5 ar
     9    4   15 1
    10    5    6 ar
    11    5   10 1
    12    6    7 1
    13    7    8 2
    14    7    9 1
    15   10   14 1
    16   10   11 1
    17   11   12 2
    18   11   19 1
    19   12   13 1
    20   13   14 2
    21   14   20 1
@<TRIPOS>MOLECULE
ZINC66584724
   42    44     0     0     0
SMALL
USER_CHARGES

@<TRIPOS>ATOM
      1 C1         -0.0225    1.8097    0.0120 C.3       1 <0>        -0.1672
      2 S1          0.0021   -0.0041    0.0020 S.3       1 <0>        -0.0689
      3 C2         -1.7016   -0.4536    0.0159 C.ar      1 <0>        -0.1491
      4 C3         -2.6794    0.5300    0.0247 C.ar      1 <0>        -0.0794
      5 C4         -4.0209    0.1774    0.0343 C.ar      1 <0>        -0.0452
      6 C5         -4.3867   -1.1630    0.0334 C.ar      1 <0>         0.1040
      7 C6         -3.4099   -2.1484    0.0264 C.ar      1 <0>        -0.2431
      8 C7         -2.0688   -1.7983    0.0122 C.ar      1 <0>         0.3152
      9 N1         -1.0828   -2.7955   -0.0007 N.2       1 <0>        -1.0762
     10 S2         -1.5204   -4.3927   -0.0051 S.o2      1 <0>         2.5269
     11 O1         -2.1877   -4.5892    1.2340 O.2       1 <0>        -1.0291
     12 O2         -2.2075   -4.5769   -1.2352 O.2       1 <0>        -1.0238
     13 C8          0.0471   -5.3055   -0.0222 C.3       1 <0>        -0.5534
     14 C9          0.8947   -4.8413   -1.2084 C.3       1 <0>        -0.0942
     15 C10         2.2168   -5.6112   -1.2228 C.3       1 <0>        -0.1123
     16 C11         1.9333   -7.1090   -1.3537 C.3       1 <0>        -0.1206
     17 C12         1.0858   -7.5732   -0.1675 C.3       1 <0>        -0.1085
     18 C13        -0.2363   -6.8033   -0.1531 C.3       1 <0>        -0.1087
     19 O3         -5.6996   -1.5268    0.0349 O.3       1 <0>        -0.3132
     20 C14        -6.6455   -0.5229    0.4181 C.3       1 <0>         0.0215
     21 C15        -6.2959    0.7746   -0.3233 C.3       1 <0>         0.0253
     22 O4         -4.9670    1.1577    0.0468 O.3       1 <0>        -0.3165
     23 H1          1.0001    2.1870    0.0043 H         1 <0>         0.0942
     24 H2         -0.5497    2.1708   -0.8711 H         1 <0>         0.0709
     25 H3         -0.5327    2.1613    0.9088 H         1 <0>         0.0709
     26 H4         -2.3958    1.5721    0.0244 H         1 <0>         0.1197
     27 H5         -3.6951   -3.1901    0.0280 H         1 <0>         0.1176
     28 H6          0.5871   -5.1176    0.9058 H         1 <0>         0.1225
     29 H7          0.3547   -5.0291   -2.1364 H         1 <0>         0.0686
     30 H8          1.0966   -3.7742   -1.1152 H         1 <0>         0.0925
     31 H9          2.8206   -5.2805   -2.0679 H         1 <0>         0.0618
     32 H10         2.7568   -5.4233   -0.2948 H         1 <0>         0.0611
     33 H11         1.3933   -7.2968   -2.2817 H         1 <0>         0.0613
     34 H12         2.8752   -7.6575   -1.3640 H         1 <0>         0.0579
     35 H13         0.8838   -8.6402   -0.2608 H         1 <0>         0.0609
     36 H14         1.6258   -7.3853    0.7605 H         1 <0>         0.0626
     37 H15        -0.8402   -7.1340    0.6920 H         1 <0>         0.0675
     38 H16        -0.7763   -6.9911   -1.0811 H         1 <0>         0.0725
     39 H17        -7.6514   -0.8423    0.1456 H         1 <0>         0.1097
     40 H18        -6.5906   -0.3576    1.4941 H         1 <0>         0.0698
     41 H19        -6.3442    0.6076   -1.3993 H         1 <0>         0.0663
     42 H20        -6.9970    1.5599   -0.0407 H         1 <0>         0.1082
@<TRIPOS>BOND
     1    1    2 1
     2    1   23 1
     3    1   24 1
     4    1   25 1
     5    2    3 1
     6    3    8 ar
     7    3    4 ar
     8    4    5 ar
     9    4   26 1
    10    5   22 1
    11    5    6 ar
    12    6    7 ar
    13    6   19 1
    14    7    8 ar
    15    7   27 1
    16    8    9 1
    17    9   10 1
    18   10   11 2
    19   10   12 2
    20   10   13 1
    21   13   18 1
    22   13   14 1
    23   13   28 1
    24   14   15 1
    25   14   29 1
    26   14   30 1
    27   15   16 1
    28   15   31 1
    29   15   32 1
    30   16   17 1
    31   16   33 1
    32   16   34 1
    33   17   18 1
    34   17   35 1
    35   17   36 1
    36   18   37 1
    37   18   38 1
    38   19   20 1
    39   20   21 1
    40   20   39 1
    41   20   40 1
    42   21   22 1
    43   21   41 1
    44   21   42 1
@<TRIPOS>MOLECULE
ZINC32201237
   35    37     0     0     0
SMALL
USER_CHARGES
(5S,10S)-2-(2-furyl)-7,8-dimethyl-4-oxo-1-thia-3-azaspiro[4.5]deca-2,7-diene-10-carboxylic acid
@<TRIPOS>ATOM
      1 C1         -7.9363    5.6456   -0.2695 C.3       1 <0>        -0.1284
      2 C2         -6.4659    5.9119   -0.0751 C.2       1 <0>        -0.1131
      3 C3         -5.7733    6.2460   -1.1159 C.2       1 <0>        -0.1416
      4 C4         -4.3031    6.5576   -1.0776 C.3       1 <0>        -0.0447
      5 C5         -3.7005    6.0765    0.2276 C.3       1 <0>        -0.0794
      6 C6         -4.5573    6.4815    1.4156 C.3       1 <0>        -0.1011
      7 H1         -4.6937    7.5730    1.4253 H         1 <0>         0.0951
      8 C7         -5.9101    5.7702    1.3108 C.3       1 <0>        -0.0617
      9 C8         -3.8712    6.0770    2.6949 C.2       1 <0>         0.4680
     10 O1         -2.8003    5.5188    2.6558 O.co2     1 <0>        -0.6240
     11 O2         -4.4498    6.3368    3.8779 O.co2     1 <0>        -0.7533
     12 C9         -2.2659    6.5244    0.3901 C.2       1 <0>         0.5582
     13 O3         -1.9521    7.6971    0.4575 O.2       1 <0>        -0.4539
     14 N1         -1.3866    5.5573    0.4534 N.2       1 <0>        -0.5826
     15 C10        -1.6932    4.2631    0.3836 C.2       1 <0>         0.3827
     16 S1         -3.4721    4.2607    0.1901 S.3       1 <0>        -0.1180
     17 C11        -0.7888    3.1152    0.4442 C.2       1 <0>         0.0136
     18 C12         0.5807    3.1673    0.5890 C.2       1 <0>        -0.0975
     19 C13         1.0322    1.8393    0.5970 C.2       1 <0>        -0.2249
     20 C14        -0.0545    1.0469    0.4599 C.2       1 <0>         0.0032
     21 O4         -1.1461    1.8163    0.3631 O.3       1 <0>        -0.1532
     22 C15        -6.4819    6.3279   -2.4435 C.3       1 <0>        -0.1098
     23 H2         -8.1977    5.7874   -1.3285 H         1 <0>         0.0685
     24 H3         -8.5202    6.3432    0.3489 H         1 <0>         0.0649
     25 H4         -8.1643    4.6118    0.0292 H         1 <0>         0.0638
     26 H5         -3.7993    6.0524   -1.9149 H         1 <0>         0.0811
     27 H6         -4.1562    7.6444   -1.1633 H         1 <0>         0.0953
     28 H7         -6.6084    6.2178    2.0334 H         1 <0>         0.0863
     29 H8         -5.7744    4.7038    1.5442 H         1 <0>         0.0800
     30 H9          1.1873    4.0563    0.6784 H         1 <0>         0.1666
     31 H10         2.0566    1.5112    0.6939 H         1 <0>         0.1601
     32 H11        -0.0435   -0.0326    0.4288 H         1 <0>         0.2141
     33 H12        -5.7648    6.6213   -3.2244 H         1 <0>         0.0568
     34 H13        -7.2861    7.0761   -2.3843 H         1 <0>         0.0644
     35 H14        -6.9120    5.3461   -2.6907 H         1 <0>         0.0646
@<TRIPOS>BOND
     1    1    2 1
     2    1   23 1
     3    1   24 1
     4    1   25 1
     5    2    8 1
     6    2    3 2
     7    3    4 1
     8    3   22 1
     9    4    5 1
    10    4   26 1
    11    4   27 1
    12    5   16 1
    13    5    6 1
    14    5   12 1
    15    6    7 1
    16    6    8 1
    17    6    9 1
    18    8   28 1
    19    8   29 1
    20    9   10 2
    21    9   11 1
    22   12   13 2
    23   12   14 1
    24   14   15 2
    25   15   16 1
    26   15   17 1
    27   17   21 1
    28   17   18 2
    29   18   19 1
    30   18   30 1
    31   19   20 2
    32   19   31 1
    33   20   21 1
    34   20   32 1
    35   22   33 1
    36   22   34 1
    37   22   35 1
@<TRIPOS>MOLECULE
ZINC41669415
   22    23     0     0     0
SMALL
USER_CHARGES

@<TRIPOS>ATOM
      1 C1         -0.0170    1.4010    0.0097 C.ar      1 <0>        -0.0392
      2 C2          1.1764    2.0696    0.0019 C.ar      1 <0>        -0.1522
      3 C3          2.3673    1.3443   -0.0133 C.ar      1 <0>         0.0611
      4 N1          2.3583    0.0170   -0.0208 N.ar      1 <0>        -0.4418
      5 C4          1.2337   -0.6657   -0.0138 C.ar      1 <0>         0.1352
      6 C5          0.0021   -0.0041    0.0020 C.ar      1 <0>        -0.1669
      7 C6         -1.2555   -0.7677    0.0099 C.2       1 <0>         0.5234
      8 O1         -2.3283   -0.1796    0.0233 O.co2     1 <0>        -0.6825
      9 O2         -1.2284   -1.9910    0.0031 O.co2     1 <0>        -0.6783
     10 S1          3.9064    2.2021   -0.0234 S.3       1 <0>         0.1109
     11 C7          5.1110    0.9163   -0.0418 C.ar      1 <0>         0.0308
     12 C8          6.4703    1.2299   -0.0473 C.ar      1 <0>        -0.0880
     13 C9          7.3774    0.1830   -0.0619 C.ar      1 <0>        -0.0974
     14 C10         6.8779   -1.1137   -0.0702 C.ar      1 <0>         0.1006
     15 N2          5.5748   -1.3182   -0.0640 N.ar      1 <0>        -0.2189
     16 N3          4.7297   -0.3524   -0.0450 N.ar      1 <0>        -0.1495
     17 Cl1         7.9686   -2.4641   -0.0891 Cl        1 <0>        -0.0147
     18 H1         -0.9524    1.9406    0.0260 H         1 <0>         0.1442
     19 H2          1.1961    3.1495    0.0072 H         1 <0>         0.1312
     20 H3          1.2621   -1.7453   -0.0202 H         1 <0>         0.1678
     21 H4          6.8050    2.2567   -0.0408 H         1 <0>         0.1620
     22 H5          8.4412    0.3691   -0.0671 H         1 <0>         0.1623
@<TRIPOS>BOND
     1    1    6 ar
     2    1    2 ar
     3    1   18 1
     4    2    3 ar
     5    2   19 1
     6    3    4 ar
     7    3   10 1
     8    4    5 ar
     9    5    6 ar
    10    5   20 1
    11    6    7 1
    12    7    8 2
    13    7    9 1
    14   10   11 1
    15   11   16 ar
    16   11   12 ar
    17   12   13 ar
    18   12   21 1
    19   13   14 ar
    20   13   22 1
    21   14   15 ar
    22   14   17 1
    23   15   16 ar
@<TRIPOS>MOLECULE
ZINC50349105
   48    49     0     0     0
SMALL
USER_CHARGES

@<TRIPOS>ATOM
      1 C1         -1.1822    2.6465   -1.3572 C.3       1 <0>        -0.1458
      2 C2         -0.9365    1.2859   -0.7019 C.3       1 <0>        -0.0641
      3 C3         -0.4461    1.4919    0.7327 C.3       1 <0>        -0.1430
      4 C4         -2.2400    0.4850   -0.6853 C.3       1 <0>        -0.1432
      5 C5          0.1224    0.5204   -1.4979 C.3       1 <0>        -0.0738
      6 C6         -0.3690    0.3130   -2.9323 C.3       1 <0>        -0.1317
      7 C7          0.6784   -0.4837   -3.7166 C.3       1 <0>         0.1293
      8 N1          1.9711    0.2071   -3.6155 N.am      1 <0>        -0.6298
      9 C8          2.4939    0.5364   -2.2825 C.3       1 <0>         0.0867
     10 C9          1.4262    1.3217   -1.5143 C.3       1 <0>        -0.1342
     11 C10         2.6645    0.5322   -4.7246 C.2       1 <0>         0.7118
     12 O1          2.1424    0.4349   -5.8183 O.2       1 <0>        -0.5840
     13 N2          3.9367    0.9651   -4.6213 N.am      1 <0>        -0.6309
     14 C11         4.7520    0.6200   -3.4487 C.3       1 <0>         0.1025
     15 C12         6.0591   -0.0193   -3.9278 C.3       1 <0>        -0.1364
     16 C13         6.7492    0.9213   -4.9183 C.3       1 <0>        -0.0941
     17 C14         5.8442    1.1387   -6.1332 C.3       1 <0>        -0.1656
     18 H1          5.6287    0.1789   -6.6028 H         1 <0>         0.0635
     19 C15         4.5366    1.7860   -5.6819 C.3       1 <0>         0.1547
     20 C16         6.5383    2.0384   -7.1229 C.2       1 <0>         0.4999
     21 O2          6.4538    1.8104   -8.3177 O.co2     1 <0>        -0.6970
     22 O3          7.1845    2.9944   -6.7290 O.co2     1 <0>        -0.6959
     23 H2         -0.2535    3.2171   -1.3690 H         1 <0>         0.0576
     24 H3         -1.5315    2.4998   -2.3792 H         1 <0>         0.0578
     25 H4         -1.9365    3.1920   -0.7901 H         1 <0>         0.0503
     26 H5         -1.2005    2.0373    1.2997 H         1 <0>         0.0517
     27 H6         -0.2710    0.5226    1.1995 H         1 <0>         0.0529
     28 H7          0.4825    2.0625    0.7208 H         1 <0>         0.0582
     29 H8         -2.5893    0.3383   -1.7074 H         1 <0>         0.0582
     30 H9         -2.0649   -0.4843   -0.2185 H         1 <0>         0.0529
     31 H10        -2.9943    1.0304   -0.1183 H         1 <0>         0.0517
     32 H11         0.2977   -0.4487   -1.0307 H         1 <0>         0.0692
     33 H12        -1.3097   -0.2375   -2.9186 H         1 <0>         0.0740
     34 H13        -0.5208    1.2817   -3.4085 H         1 <0>         0.0705
     35 H14         0.7656   -1.4855   -3.2961 H         1 <0>         0.0580
     36 H15         0.3797   -0.5490   -4.7628 H         1 <0>         0.0914
     37 H16         2.7291   -0.3822   -1.7451 H         1 <0>         0.0629
     38 H17         3.3932    1.1442   -2.3825 H         1 <0>         0.1067
     39 H18         1.2575    2.2809   -2.0038 H         1 <0>         0.0702
     40 H19         1.7632    1.4891   -0.4914 H         1 <0>         0.0747
     41 H20         4.9739    1.5227   -2.8794 H         1 <0>         0.0660
     42 H21         4.2085   -0.0861   -2.8208 H         1 <0>         0.0881
     43 H22         6.7139   -0.1923   -3.0737 H         1 <0>         0.0671
     44 H23         5.8416   -0.9682   -4.4182 H         1 <0>         0.0604
     45 H24         6.9441    1.8785   -4.4347 H         1 <0>         0.0675
     46 H25         7.6917    0.4797   -5.2421 H         1 <0>         0.0553
     47 H26         3.8511    1.8490   -6.5270 H         1 <0>         0.0842
     48 H27         4.7405    2.7859   -5.2988 H         1 <0>         0.0637
@<TRIPOS>BOND
     1    1    2 1
     2    1   23 1
     3    1   24 1
     4    1   25 1
     5    2    3 1
     6    2    4 1
     7    2    5 1
     8    3   26 1
     9    3   27 1
    10    3   28 1
    11    4   29 1
    12    4   30 1
    13    4   31 1
    14    5   10 1
    15    5    6 1
    16    5   32 1
    17    6    7 1
    18    6   33 1
    19    6   34 1
    20    7    8 1
    21    7   35 1
    22    7   36 1
    23    8    9 1
    24    8   11 am
    25    9   10 1
    26    9   37 1
    27    9   38 1
    28   10   39 1
    29   10   40 1
    30   11   12 2
    31   11   13 am
    32   13   19 1
    33   13   14 1
    34   14   15 1
    35   14   41 1
    36   14   42 1
    37   15   16 1
    38   15   43 1
    39   15   44 1
    40   16   17 1
    41   16   45 1
    42   16   46 1
    43   17   18 1
    44   17   19 1
    45   17   20 1
    46   19   47 1
    47   19   48 1
    48   20   21 2
    49   20   22 1
@<TRIPOS>MOLECULE
ZINC61404141
   41    42     0     0     0
SMALL
USER_CHARGES

@<TRIPOS>ATOM
      1 C1          0.6391    1.6391    0.1325 C.3       1 <0>        -0.1315
      2 C2          0.7849    0.1708    0.5371 C.3       1 <0>        -0.0628
      3 C3          2.1766   -0.0591    1.1297 C.3       1 <0>        -0.1947
      4 C4         -0.2779   -0.1786    1.5807 C.3       1 <0>        -0.1353
      5 C5          0.6019   -0.7181   -0.6946 C.3       1 <0>        -0.0472
      6 H1         -0.1938   -0.3132   -1.3199 H         1 <0>         0.0640
      7 C6          0.2308   -2.1345   -0.2507 C.3       1 <0>        -0.1270
      8 C7          0.0478   -3.0235   -1.4825 C.3       1 <0>        -0.1047
      9 C8          1.3526   -3.0645   -2.2803 C.3       1 <0>        -0.1277
     10 C9          1.7236   -1.6481   -2.7242 C.3       1 <0>        -0.1016
     11 C10         1.9067   -0.7591   -1.4925 C.3       1 <0>         0.0984
     12 C11         3.0068   -1.3190   -0.6280 C.2       1 <0>         0.5361
     13 O1          2.9263   -2.4580   -0.2005 O.co2     1 <0>        -0.6765
     14 O2          3.9773   -0.6329   -0.3560 O.co2     1 <0>        -0.6576
     15 N1          2.2620    0.5971   -1.9175 N.am      1 <0>        -0.3206
     16 C12         3.5085    0.8390   -2.3663 C.2       1 <0>         0.4811
     17 O3          4.3309   -0.0615   -2.4181 O.2       1 <0>        -0.4834
     18 C13         3.8538    2.1448   -2.7766 C.2       1 <0>        -0.2133
     19 C14         2.8932    3.1127   -2.6971 C.2       1 <0>        -0.0728
     20 C15         1.6239    2.7536   -2.2141 C.2       1 <0>        -0.0705
     21 N2          1.3757    1.5240   -1.8577 N.2       1 <0>        -0.1548
     22 H2          1.5757    1.9917   -0.2995 H         1 <0>         0.0701
     23 H3         -0.1595    1.7358   -0.6030 H         1 <0>         0.0670
     24 H4          0.3973    2.2360    1.0120 H         1 <0>         0.0317
     25 H5          2.1871    0.2669    2.1697 H         1 <0>         0.0206
     26 H6          2.4224   -1.1198    1.0790 H         1 <0>         0.1044
     27 H7          2.9119    0.5117    0.5626 H         1 <0>         0.0915
     28 H8         -1.2694   -0.0148    1.1586 H         1 <0>         0.0458
     29 H9         -0.1740   -1.2247    1.8690 H         1 <0>         0.0587
     30 H10        -0.1475    0.4547    2.4582 H         1 <0>         0.0438
     31 H11         1.0265   -2.5395    0.3746 H         1 <0>         0.1063
     32 H12        -0.6988   -2.1054    0.3177 H         1 <0>         0.0524
     33 H13        -0.2166   -4.0326   -1.1662 H         1 <0>         0.0536
     34 H14        -0.7479   -2.6186   -2.1078 H         1 <0>         0.0418
     35 H15         2.1483   -3.4694   -1.6550 H         1 <0>         0.1130
     36 H16         1.2222   -3.6978   -3.1578 H         1 <0>         0.0436
     37 H17         2.6532   -1.6773   -3.2926 H         1 <0>         0.0617
     38 H18         0.9280   -1.2431   -3.3495 H         1 <0>         0.0448
     39 H19         4.8450    2.3712   -3.1409 H         1 <0>         0.1459
     40 H20         3.1043    4.1283   -2.9977 H         1 <0>         0.1342
     41 H21         0.8470    3.5002   -2.1415 H         1 <0>         0.1712
@<TRIPOS>BOND
     1    1    2 1
     2    1   22 1
     3    1   23 1
     4    1   24 1
     5    2    3 1
     6    2    4 1
     7    2    5 1
     8    3   25 1
     9    3   26 1
    10    3   27 1
    11    4   28 1
    12    4   29 1
    13    4   30 1
    14    5    6 1
    15    5   11 1
    16    5    7 1
    17    7    8 1
    18    7   31 1
    19    7   32 1
    20    8    9 1
    21    8   33 1
    22    8   34 1
    23    9   10 1
    24    9   35 1
    25    9   36 1
    26   10   11 1
    27   10   37 1
    28   10   38 1
    29   11   12 1
    30   11   15 1
    31   12   13 2
    32   12   14 1
    33   15   21 1
    34   15   16 am
    35   16   17 2
    36   16   18 1
    37   18   19 2
    38   18   39 1
    39   19   20 1
    40   19   40 1
    41   20   21 2
    42   20   41 1
@<TRIPOS>MOLECULE
ZINC62960345
   48    49     0     0     0
SMALL
USER_CHARGES

@<TRIPOS>ATOM
      1 C1         -1.3729   -0.2184   -0.2147 C.3       1 <0>        -0.1539
      2 C2          0.1240    0.0415   -0.3952 C.3       1 <0>        -0.1208
      3 C3          0.6844   -0.9158   -1.4489 C.3       1 <0>        -0.0553
      4 C4          2.1716   -0.6246   -1.6628 C.3       1 <0>        -0.1234
      5 C5          2.9160   -0.7880   -0.3339 C.3       1 <0>         0.0649
      6 N1          2.6344   -2.1257    0.2045 N.am      1 <0>        -0.6206
      7 C6          1.2346   -2.5422    0.3654 C.3       1 <0>         0.1290
      8 C7          0.5090   -2.3591   -0.9713 C.3       1 <0>        -0.1228
      9 C8          3.6409   -2.9552    0.5440 C.2       1 <0>         0.7317
     10 O1          3.4015   -4.1054    0.8570 O.2       1 <0>        -0.6049
     11 N2          4.9129   -2.5097    0.5366 N.am      1 <0>        -0.6344
     12 C9          6.1439   -3.3232    0.6658 C.3       1 <0>         0.1238
     13 C10         7.0567   -2.4470    1.5600 C.3       1 <0>        -0.1043
     14 C11         6.7469   -1.0144    1.0677 C.3       1 <0>        -0.1467
     15 C12         5.3641   -1.1130    0.3918 C.3       1 <0>         0.1076
     16 C13         7.7987   -0.5621    0.0527 C.3       1 <0>        -0.1155
     17 C14         6.6975   -0.0597    2.2327 C.2       1 <0>         0.5081
     18 O2          7.6871    0.1099    2.9243 O.co2     1 <0>        -0.6914
     19 O3          5.6678    0.5431    2.4836 O.co2     1 <0>        -0.6921
     20 C15        -0.0677   -0.7200   -2.7668 C.3       1 <0>        -0.1128
     21 C16         0.4512   -1.7186   -3.8034 C.3       1 <0>        -0.1559
     22 H1         -1.8913   -0.0241   -1.1536 H         1 <0>         0.0538
     23 H2         -1.5287   -1.2567    0.0783 H         1 <0>         0.0559
     24 H3         -1.7653    0.4405    0.5600 H         1 <0>         0.0504
     25 H4          0.2774    1.0704   -0.7207 H         1 <0>         0.0615
     26 H5          0.6377   -0.1202    0.5525 H         1 <0>         0.0701
     27 H6          2.5772   -1.3224   -2.3953 H         1 <0>         0.0661
     28 H7          2.2940    0.3960   -2.0253 H         1 <0>         0.0714
     29 H8          3.9878   -0.6791   -0.4998 H         1 <0>         0.1217
     30 H9          2.5745   -0.0307    0.3717 H         1 <0>         0.0694
     31 H10         1.1970   -3.5906    0.6610 H         1 <0>         0.0884
     32 H11         0.7560   -1.9279    1.1281 H         1 <0>         0.0625
     33 H12        -0.5519   -2.5730   -0.8416 H         1 <0>         0.0727
     34 H13         0.9303   -3.0406   -1.7103 H         1 <0>         0.0673
     35 H14         5.9271   -4.2742    1.1524 H         1 <0>         0.0773
     36 H15         6.6021   -3.4850   -0.3099 H         1 <0>         0.0623
     37 H16         6.7907   -2.5599    2.6110 H         1 <0>         0.0686
     38 H17         8.1063   -2.6923    1.3979 H         1 <0>         0.0755
     39 H18         5.4454   -0.8568   -0.6646 H         1 <0>         0.0540
     40 H19         4.6610   -0.4426    0.8860 H         1 <0>         0.1075
     41 H20         7.8129   -1.2547   -0.7888 H         1 <0>         0.0412
     42 H21         7.5528    0.4381   -0.3040 H         1 <0>         0.0481
     43 H22         8.7795   -0.5475    0.5280 H         1 <0>         0.0605
     44 H23        -1.1330   -0.8847   -2.6052 H         1 <0>         0.0638
     45 H24         0.0921    0.2956   -3.1290 H         1 <0>         0.0598
     46 H25         0.2031   -2.7319   -3.4876 H         1 <0>         0.0547
     47 H26        -0.0129   -1.5148   -4.7684 H         1 <0>         0.0482
     48 H27         1.5331   -1.6205   -3.8926 H         1 <0>         0.0568
@<TRIPOS>BOND
     1    1    2 1
     2    1   22 1
     3    1   23 1
     4    1   24 1
     5    2    3 1
     6    2   25 1
     7    2   26 1
     8    3    8 1
     9    3    4 1
    10    3   20 1
    11    4    5 1
    12    4   27 1
    13    4   28 1
    14    5    6 1
    15    5   29 1
    16    5   30 1
    17    6    7 1
    18    6    9 am
    19    7    8 1
    20    7   31 1
    21    7   32 1
    22    8   33 1
    23    8   34 1
    24    9   10 2
    25    9   11 am
    26   11   15 1
    27   11   12 1
    28   12   13 1
    29   12   35 1
    30   12   36 1
    31   13   14 1
    32   13   37 1
    33   13   38 1
    34   14   15 1
    35   14   16 1
    36   14   17 1
    37   15   39 1
    38   15   40 1
    39   16   41 1
    40   16   42 1
    41   16   43 1
    42   17   18 2
    43   17   19 1
    44   20   21 1
    45   20   44 1
    46   20   45 1
    47   21   46 1
    48   21   47 1
    49   21   48 1
@<TRIPOS>MOLECULE
ZINC09302209
   52    55     0     0     0
SMALL
USER_CHARGES
17-hydroxy-17-(2-hydroxyacetyl)-10,13-dimethyl-6,7,8,9,12,14,15,16-octahydrocyclopenta[a]phenanthrene-3,11-dione
@<TRIPOS>ATOM
      1 C1          2.7868   -0.3868   -0.6650 C.3       1 <0>        -0.1383
      2 C2          2.2649   -0.1886    0.7595 C.3       1 <0>        -0.0426
      3 C3          0.8996   -0.8416    0.9058 C.3       1 <0>        -0.1563
      4 C4         -0.0207   -0.1478   -0.0884 C.2       1 <0>         0.3760
      5 O1         -0.7039   -0.7979   -0.8427 O.2       1 <0>        -0.4366
      6 C5         -0.0715    1.3583   -0.1225 C.3       1 <0>        -0.1079
      7 H1         -0.5629    1.6935    0.6813 H         1 <0>         0.1021
      8 C6          1.3549    1.9368   -0.1208 C.3       1 <0>        -0.0756
      9 H2          1.8592    1.6651   -1.0482 H         1 <0>         0.0998
     10 C7          2.0920    1.3265    1.0539 C.3       1 <0>        -0.0909
     11 H3          1.5370    1.4736    1.9804 H         1 <0>         0.0897
     12 C8          3.5508    1.7760    1.2372 C.3       1 <0>        -0.1074
     13 C9          4.1884    0.6133    2.0437 C.3       1 <0>        -0.1444
     14 C10         3.3205   -0.6382    1.7674 C.3       1 <0>         0.1073
     15 C11         2.6611   -1.1085    3.0382 C.2       1 <0>         0.3279
     16 O2          2.4213   -0.3206    3.9214 O.2       1 <0>        -0.4085
     17 C12         2.3009   -2.5621    3.2069 C.3       1 <0>         0.0365
     18 O3          1.6922   -2.7568    4.4851 O.3       1 <0>        -0.5567
     19 O4          4.1218   -1.6826    1.2113 O.3       1 <0>        -0.5355
     20 C13         1.2806    3.4577   -0.0029 C.3       1 <0>        -0.1115
     21 C14         0.5965    4.0263   -1.2526 C.3       1 <0>        -0.0949
     22 C15        -0.7470    3.3419   -1.4200 C.2       1 <0>        -0.0352
     23 C16        -1.8282    4.0894   -1.5949 C.2       1 <0>        -0.2192
     24 C17        -3.1539    3.4686   -1.7381 C.2       1 <0>         0.4053
     25 O5         -4.1411    4.1498   -1.9434 O.2       1 <0>        -0.4575
     26 C18        -3.2594    2.0039   -1.6268 C.2       1 <0>        -0.2209
     27 C19        -2.1665    1.2759   -1.4601 C.2       1 <0>        -0.0742
     28 C20        -0.7902    1.8408   -1.3826 C.3       1 <0>        -0.0010
     29 C21        -0.0152    1.3177   -2.5936 C.3       1 <0>        -0.1502
     30 H4          2.0383   -0.0406   -1.3777 H         1 <0>         0.0594
     31 H5          3.7061    0.1837   -0.7978 H         1 <0>         0.0701
     32 H6          2.9880   -1.4446   -0.8344 H         1 <0>         0.0746
     33 H7          0.5732   -0.7251    1.8438 H         1 <0>         0.0898
     34 H8          0.9670   -1.9044    0.6736 H         1 <0>         0.1006
     35 H9          3.6021    2.7083    1.7995 H         1 <0>         0.0784
     36 H10         4.0378    1.8849    0.2681 H         1 <0>         0.0773
     37 H11         4.1790    0.8473    3.1082 H         1 <0>         0.0852
     38 H12         5.2108    0.4412    1.7071 H         1 <0>         0.0865
     39 H13         1.6604   -2.8324    2.4881 H         1 <0>         0.0748
     40 H14         3.2027   -3.1703    3.1375 H         1 <0>         0.0835
     41 H15         1.4338   -3.6716    4.6624 H         1 <0>         0.3886
     42 H16         4.8105   -2.0092    1.8063 H         1 <0>         0.3825
     43 H17         0.7041    3.7267    0.8822 H         1 <0>         0.0724
     44 H18         2.2876    3.8663    0.0801 H         1 <0>         0.0827
     45 H19         0.4483    5.0995   -1.1326 H         1 <0>         0.0847
     46 H20         1.2182    3.8381   -2.1279 H         1 <0>         0.0878
     47 H21        -1.7345    5.1647   -1.6321 H         1 <0>         0.1385
     48 H22        -4.2258    1.5250   -1.6815 H         1 <0>         0.1395
     49 H23        -2.2797    0.2052   -1.3749 H         1 <0>         0.1469
     50 H24         0.0094    0.2283   -2.5663 H         1 <0>         0.0793
     51 H25        -0.5062    1.6473   -3.5092 H         1 <0>         0.0664
     52 H26         1.0034    1.7049   -2.5679 H         1 <0>         0.0711
@<TRIPOS>BOND
     1    1    2 1
     2    1   30 1
     3    1   31 1
     4    1   32 1
     5    2   10 1
     6    2   14 1
     7    2    3 1
     8    3    4 1
     9    3   33 1
    10    3   34 1
    11    4    5 2
    12    4    6 1
    13    6    7 1
    14    6   28 1
    15    6    8 1
    16    8    9 1
    17    8   10 1
    18    8   20 1
    19   10   11 1
    20   10   12 1
    21   12   13 1
    22   12   35 1
    23   12   36 1
    24   13   14 1
    25   13   37 1
    26   13   38 1
    27   14   15 1
    28   14   19 1
    29   15   16 2
    30   15   17 1
    31   17   18 1
    32   17   39 1
    33   17   40 1
    34   18   41 1
    35   19   42 1
    36   20   21 1
    37   20   43 1
    38   20   44 1
    39   21   22 1
    40   21   45 1
    41   21   46 1
    42   22   28 1
    43   22   23 2
    44   23   24 1
    45   23   47 1
    46   24   25 2
    47   24   26 1
    48   26   27 2
    49   26   48 1
    50   27   28 1
    51   27   49 1
    52   28   29 1
    53   29   50 1
    54   29   51 1
    55   29   52 1
@<TRIPOS>MOLECULE
ZINC00458668
   48    50     0     0     0
SMALL
USER_CHARGES

@<TRIPOS>ATOM
      1 C1         -0.8536    2.5163   -1.2534 C.3       1 <0>        -0.1563
      2 C2         -1.2398    1.0376   -1.1826 C.3       1 <0>        -0.0537
      3 C3         -0.2346    0.2047   -1.9812 C.3       1 <0>        -0.1074
      4 C4          1.1418    0.3614   -1.3828 C.2       1 <0>         0.1964
      5 C5          1.3039    0.5848   -0.0612 C.2       1 <0>        -0.2497
      6 C6          2.6800    0.7412    0.5349 C.3       1 <0>         0.1089
      7 H1          2.7234    0.2009    1.4805 H         1 <0>         0.0922
      8 C7          3.7342    0.2038   -0.3876 C.2       1 <0>        -0.2629
      9 C8          3.4736   -0.0054   -1.7045 C.2       1 <0>         0.5160
     10 N1          2.2260    0.2676   -2.2127 N.pl3     1 <0>        -0.3874
     11 N2          2.0668    0.4464   -3.5576 N.3       1 <0>        -0.3068
     12 C9          1.2741   -0.6429   -4.1433 C.3       1 <0>        -0.0356
     13 C10         1.4609    1.7529   -3.8469 C.3       1 <0>        -0.0210
     14 N3          4.4592   -0.4904   -2.5299 N.pl3     1 <0>        -0.8404
     15 C11         5.0366   -0.0932    0.1283 C.1       1 <0>         0.2756
     16 N4          6.0697   -0.3288    0.5377 N.1       1 <0>        -0.4517
     17 C12         2.9455    2.2028    0.7885 C.ar      1 <0>        -0.1171
     18 C13         3.2147    2.6553    2.0714 C.ar      1 <0>        -0.0607
     19 C14         3.4528    4.0082    2.2575 C.ar      1 <0>        -0.1701
     20 C15         3.4143    4.8553    1.1658 C.ar      1 <0>         0.0897
     21 N5          3.1546    4.3898   -0.0402 N.ar      1 <0>        -0.4854
     22 C16         2.9293    3.1082   -0.2553 C.ar      1 <0>         0.1090
     23 C17         0.1958    0.6833    0.7982 C.2       1 <0>         0.4041
     24 O1          0.3769    0.8664    1.9858 O.2       1 <0>        -0.4598
     25 C18        -1.2097    0.5666    0.2753 C.3       1 <0>        -0.1596
     26 C19        -2.6449    0.8450   -1.7564 C.3       1 <0>        -0.1423
     27 H2          0.1505    2.6493   -0.8508 H         1 <0>         0.0631
     28 H3         -0.8759    2.8484   -2.2913 H         1 <0>         0.0618
     29 H4         -1.5605    3.1048   -0.6684 H         1 <0>         0.0666
     30 H5         -0.5268   -0.8450   -1.9497 H         1 <0>         0.1056
     31 H6         -0.2214    0.5463   -3.0162 H         1 <0>         0.1023
     32 H7          0.3622   -0.7816   -3.5624 H         1 <0>         0.0699
     33 H8          1.0150   -0.3913   -5.1717 H         1 <0>         0.0945
     34 H9          1.8568   -1.5640   -4.1303 H         1 <0>         0.0818
     35 H10         2.1867    2.5418   -3.6493 H         1 <0>         0.0873
     36 H11         1.1599    1.7900   -4.8938 H         1 <0>         0.0956
     37 H12         0.5865    1.8964   -3.2121 H         1 <0>         0.0661
     38 H13         5.3618   -0.6037   -2.1931 H         1 <0>         0.4173
     39 H14         4.2525   -0.7195   -3.4495 H         1 <0>         0.4114
     40 H15         3.2379    1.9699    2.9058 H         1 <0>         0.1330
     41 H16         3.6653    4.3956    3.2430 H         1 <0>         0.1336
     42 H17         3.5987    5.9106    1.3024 H         1 <0>         0.1531
     43 H18         2.7253    2.7631   -1.2581 H         1 <0>         0.1404
     44 H19        -1.8745    1.1896    0.8737 H         1 <0>         0.1001
     45 H20        -1.5341   -0.4726    0.3298 H         1 <0>         0.1028
     46 H21        -2.6613    1.1738   -2.7955 H         1 <0>         0.0613
     47 H22        -2.9172   -0.2092   -1.7046 H         1 <0>         0.0616
     48 H23        -3.3574    1.4330   -1.1779 H         1 <0>         0.0671
@<TRIPOS>BOND
     1    1    2 1
     2    1   27 1
     3    1   28 1
     4    1   29 1
     5    2   25 1
     6    2    3 1
     7    2   26 1
     8    3    4 1
     9    3   30 1
    10    3   31 1
    11    4   10 1
    12    4    5 2
    13    5    6 1
    14    5   23 1
    15    6    7 1
    16    6    8 1
    17    6   17 1
    18    8    9 2
    19    8   15 1
    20    9   10 1
    21    9   14 1
    22   10   11 1
    23   11   12 1
    24   11   13 1
    25   12   32 1
    26   12   33 1
    27   12   34 1
    28   13   35 1
    29   13   36 1
    30   13   37 1
    31   14   38 1
    32   14   39 1
    33   15   16 3
    34   17   22 ar
    35   17   18 ar
    36   18   19 ar
    37   18   40 1
    38   19   20 ar
    39   19   41 1
    40   20   21 ar
    41   20   42 1
    42   21   22 ar
    43   22   43 1
    44   23   24 2
    45   23   25 1
    46   25   44 1
    47   25   45 1
    48   26   46 1
    49   26   47 1
    50   26   48 1
@<TRIPOS>MOLECULE
ZINC40216117
   33    35     0     0     0
SMALL
USER_CHARGES

@<TRIPOS>ATOM
      1 C1         -0.0184    1.5028    0.0103 C.3       1 <0>        -0.0856
      2 C2          0.0021   -0.0041    0.0020 C.2       1 <0>         0.1124
      3 C3          0.0066   -0.7505   -1.1708 C.2       1 <0>        -0.2593
      4 S1          0.0330   -2.4007   -0.4905 S.3       1 <0>         0.3293
      5 N1          0.0353   -2.0046    1.0819 N.2       1 <0>        -0.1804
      6 N2          0.0227   -0.7194    1.0995 N.2       1 <0>        -0.2656
      7 C4         -0.0066   -0.3067   -2.5736 C.2       1 <0>         0.6227
      8 O1         -0.0245    0.8809   -2.8356 O.2       1 <0>        -0.4788
      9 N3          0.0010   -1.2162   -3.5682 N.am      1 <0>        -0.5481
     10 C5          0.0158   -2.6690   -3.3777 C.3       1 <0>         0.0818
     11 C6          0.0188   -3.2616   -4.7963 C.3       1 <0>        -0.0815
     12 C7          0.0049   -2.0579   -5.7114 C.ar      1 <0>        -0.1536
     13 C8         -0.0101   -0.9117   -4.9320 C.ar      1 <0>         0.2050
     14 C9         -0.0298    0.3349   -5.5604 C.ar      1 <0>        -0.1482
     15 C10        -0.0385    0.4198   -6.9365 C.ar      1 <0>         0.0103
     16 C11        -0.0271   -0.7296   -7.7048 C.ar      1 <0>        -0.6946
     17 C12         0.0008   -1.9678   -7.0898 C.ar      1 <0>         0.0252
     18 S2         -0.0388   -0.6168   -9.4631 S.o2      1 <0>         2.7057
     19 O2         -0.5757   -1.8410   -9.9451 O.2       1 <0>        -0.9626
     20 O3         -0.6089    0.6443   -9.7854 O.2       1 <0>        -0.9613
     21 N4          1.5397   -0.5638   -9.9609 N.pl3     1 <0>        -1.2502
     22 H1          1.0042    1.8801    0.0026 H         1 <0>         0.0938
     23 H2         -0.5455    1.8639   -0.8728 H         1 <0>         0.1008
     24 H3         -0.5286    1.8543    0.9071 H         1 <0>         0.0892
     25 H4          0.9147   -2.9707   -2.8400 H         1 <0>         0.0957
     26 H5         -0.8747   -2.9885   -2.8363 H         1 <0>         0.0956
     27 H6          0.9198   -3.8530   -4.9595 H         1 <0>         0.1039
     28 H7         -0.8710   -3.8708   -4.9558 H         1 <0>         0.1044
     29 H8         -0.0387    1.2366   -4.9660 H         1 <0>         0.1532
     30 H9         -0.0545    1.3874   -7.4159 H         1 <0>         0.1522
     31 H10         0.0084   -2.8667   -7.6885 H         1 <0>         0.1501
     32 H11         2.2557   -0.5963   -9.3073 H         1 <0>         0.4168
     33 H12         1.7484   -0.5003  -10.9060 H         1 <0>         0.4218
@<TRIPOS>BOND
     1    1    2 1
     2    1   22 1
     3    1   23 1
     4    1   24 1
     5    2    6 1
     6    2    3 2
     7    3    4 1
     8    3    7 1
     9    4    5 1
    10    5    6 2
    11    7    8 2
    12    7    9 am
    13    9   13 1
    14    9   10 1
    15   10   11 1
    16   10   25 1
    17   10   26 1
    18   11   12 1
    19   11   27 1
    20   11   28 1
    21   12   17 ar
    22   12   13 ar
    23   13   14 ar
    24   14   15 ar
    25   14   29 1
    26   15   16 ar
    27   15   30 1
    28   16   17 ar
    29   16   18 1
    30   17   31 1
    31   18   19 2
    32   18   20 2
    33   18   21 1
    34   21   32 1
    35   21   33 1
@<TRIPOS>MOLECULE
ZINC55304664
   36    38     0     0     0
SMALL
USER_CHARGES

@<TRIPOS>ATOM
      1 C1         -0.0167    1.3785    0.0096 C.ar      1 <0>        -0.0626
      2 C2          1.1690    2.0813    0.0021 C.ar      1 <0>        -0.1188
      3 C3          2.3950    1.4128   -0.0130 C.ar      1 <0>         0.1369
      4 C4          2.4138    0.0272   -0.0208 C.ar      1 <0>         0.1239
      5 C5          1.2064   -0.6744   -0.0134 C.ar      1 <0>        -0.1010
      6 C6          0.0021   -0.0041    0.0020 C.ar      1 <0>        -0.0785
      7 C7         -1.2918   -0.7766    0.0110 C.3       1 <0>        -0.0014
      8 H1         -1.0799   -1.8414   -0.0864 H         1 <0>         0.1303
      9 C8         -2.0289   -0.5216    1.3273 C.3       1 <0>         0.0623
     10 H2         -1.4070   -0.8457    2.1618 H         1 <0>         0.0888
     11 C9         -3.3456   -1.3036    1.3364 C.3       1 <0>         0.0220
     12 O1         -4.0796   -0.9731    2.5192 O.3       1 <0>        -0.3730
     13 C10        -4.3624    0.4237    2.6461 C.3       1 <0>         0.0210
     14 C11        -3.0457    1.2056    2.6370 C.3       1 <0>         0.0264
     15 O2         -2.3103    0.8754    1.4550 O.3       1 <0>        -0.3626
     16 Br1        -2.4148   -0.1916   -1.4929 Br        1 <0>        -0.1184
     17 N1          3.5811   -0.7303   -0.0355 N.am      1 <0>        -0.6597
     18 C12         4.6675   -0.4660   -0.7571 C.2       1 <0>         0.5283
     19 O3          5.6108   -1.2272   -0.7135 O.2       1 <0>        -0.5118
     20 C13         4.7475    0.7612   -1.6279 C.3       1 <0>        -0.1631
     21 C14         4.6343    1.9761   -0.7435 C.2       1 <0>         0.5280
     22 O4          5.5564    2.7623   -0.6913 O.2       1 <0>        -0.5112
     23 N2          3.5411    2.2020   -0.0187 N.am      1 <0>        -0.6606
     24 H3         -0.9586    1.9066    0.0259 H         1 <0>         0.1501
     25 H4          1.1497    3.1612    0.0075 H         1 <0>         0.1400
     26 H5          1.2163   -1.7544   -0.0200 H         1 <0>         0.1386
     27 H6         -3.9328   -1.0384    0.4572 H         1 <0>         0.0763
     28 H7         -3.1343   -2.3729    1.3256 H         1 <0>         0.1070
     29 H8         -4.9838    0.7469    1.8110 H         1 <0>         0.0648
     30 H9         -4.8874    0.6053    3.5839 H         1 <0>         0.1069
     31 H10        -3.2569    2.2749    2.6478 H         1 <0>         0.1098
     32 H11        -2.4584    0.9405    3.5162 H         1 <0>         0.0627
     33 H12         3.6050   -1.5187    0.5291 H         1 <0>         0.4133
     34 H13         5.7021    0.7771   -2.1538 H         1 <0>         0.1433
     35 H14         3.9301    0.7541   -2.3489 H         1 <0>         0.1277
     36 H15         3.5433    2.9846    0.5545 H         1 <0>         0.4143
@<TRIPOS>BOND
     1    1    6 ar
     2    1    2 ar
     3    1   24 1
     4    2    3 ar
     5    2   25 1
     6    3   23 1
     7    3    4 ar
     8    4    5 ar
     9    4   17 1
    10    5    6 ar
    11    5   26 1
    12    6    7 1
    13    7    8 1
    14    7    9 1
    15    7   16 1
    16    9   10 1
    17    9   15 1
    18    9   11 1
    19   11   12 1
    20   11   27 1
    21   11   28 1
    22   12   13 1
    23   13   14 1
    24   13   29 1
    25   13   30 1
    26   14   15 1
    27   14   31 1
    28   14   32 1
    29   17   18 am
    30   17   33 1
    31   18   19 2
    32   18   20 1
    33   20   21 1
    34   20   34 1
    35   20   35 1
    36   21   22 2
    37   21   23 am
    38   23   36 1
@<TRIPOS>MOLECULE
ZINC65288965
   47    51     0     0     0
SMALL
USER_CHARGES

@<TRIPOS>ATOM
      1 C1          0.1630    1.1713   -0.3616 C.ar      1 <0>        -0.1093
      2 C2          0.8752    1.1424    0.8228 C.ar      1 <0>        -0.1127
      3 C3          2.0792    0.4666    0.8891 C.ar      1 <0>        -0.1229
      4 C4          2.5709   -0.1807   -0.2290 C.ar      1 <0>        -0.1468
      5 C5          1.8583   -0.1526   -1.4132 C.ar      1 <0>        -0.0937
      6 C6          0.6549    0.5244   -1.4798 C.ar      1 <0>        -0.1128
      7 C7          3.8840   -0.9167   -0.1571 C.3       1 <0>         0.2703
      8 H1          4.2050   -1.2131   -1.1557 H         1 <0>         0.1294
      9 N1          4.9177   -0.0631    0.4834 N.3       1 <0>        -0.4859
     10 N2          5.3103   -0.7395    1.7330 N.3       1 <0>        -0.4585
     11 C8          4.1389   -1.5757    2.0525 C.3       1 <0>         0.1629
     12 H2          3.3371   -0.9769    2.4845 H         1 <0>         0.0424
     13 N3          3.7589   -2.0943    0.7060 N.3       1 <0>        -0.5090
     14 C9          2.4505   -2.7286    0.7803 C.3       1 <0>         0.0481
     15 C10         2.5891   -3.9820    1.6619 C.3       1 <0>         0.1164
     16 N4          3.2436   -3.6333    2.9293 N.am      1 <0>        -0.6082
     17 C11         4.4574   -2.7783    2.9343 C.3       1 <0>         0.1431
     18 C12         2.7386   -4.0778    4.0971 C.2       1 <0>         0.5648
     19 O1          3.2270   -3.7124    5.1491 O.2       1 <0>        -0.5229
     20 C13         1.5932   -5.0078    4.0992 C.2       1 <0>        -0.1000
     21 C14         1.7969   -6.3674    3.8910 C.2       1 <0>        -0.0547
     22 C15         0.6390   -7.1605    3.9719 C.2       1 <0>        -0.1055
     23 C16         0.2830   -8.3116    3.3767 C.2       1 <0>        -0.1543
     24 C17        -1.1436   -8.5330    3.6059 C.2       1 <0>         0.1401
     25 N5         -1.6369   -7.6336    4.4055 N.2       1 <0>        -0.4646
     26 C18        -0.5518   -6.7628    4.8252 C.3       1 <0>         0.0615
     27 H3         -0.3236   -6.9461    5.8752 H         1 <0>         0.1446
     28 C19        -0.7924   -5.2970    4.6341 C.2       1 <0>        -0.0919
     29 C20         0.2322   -4.5025    4.3273 C.2       1 <0>        -0.1177
     30 H4         -0.7799    1.6956   -0.4121 H         1 <0>         0.1268
     31 H5          0.4910    1.6482    1.6964 H         1 <0>         0.1245
     32 H6          2.6360    0.4446    1.8142 H         1 <0>         0.1091
     33 H7          2.2426   -0.6580   -2.2869 H         1 <0>         0.1291
     34 H8          0.0984    0.5468   -2.4051 H         1 <0>         0.1285
     35 H9          4.5586    0.8612    0.6700 H         1 <0>         0.3242
     36 H10         5.4874   -0.0697    2.4665 H         1 <0>         0.3432
     37 H11         1.7313   -2.0412    1.2256 H         1 <0>         0.0477
     38 H12         2.1208   -3.0140   -0.2186 H         1 <0>         0.0982
     39 H13         1.6000   -4.3919    1.8662 H         1 <0>         0.0928
     40 H14         3.1874   -4.7280    1.1389 H         1 <0>         0.0830
     41 H15         5.2960   -3.3358    2.5169 H         1 <0>         0.0964
     42 H16         4.6936   -2.4478    3.9457 H         1 <0>         0.1025
     43 H17         2.7717   -6.7830    3.6825 H         1 <0>         0.1469
     44 H18         0.9408   -8.9637    2.8214 H         1 <0>         0.1518
     45 H19        -1.7140   -9.3388    3.1681 H         1 <0>         0.1803
     46 H20        -1.7854   -4.8879    4.7484 H         1 <0>         0.1384
     47 H21         0.0529   -3.4412    4.2382 H         1 <0>         0.1245
@<TRIPOS>BOND
     1    1    6 ar
     2    1    2 ar
     3    1   30 1
     4    2    3 ar
     5    2   31 1
     6    3    4 ar
     7    3   32 1
     8    4    5 ar
     9    4    7 1
    10    5    6 ar
    11    5   33 1
    12    6   34 1
    13    7    8 1
    14    7   13 1
    15    7    9 1
    16    9   10 1
    17    9   35 1
    18   10   11 1
    19   10   36 1
    20   11   12 1
    21   11   17 1
    22   11   13 1
    23   13   14 1
    24   14   15 1
    25   14   37 1
    26   14   38 1
    27   15   16 1
    28   15   39 1
    29   15   40 1
    30   16   17 1
    31   16   18 am
    32   17   41 1
    33   17   42 1
    34   18   19 2
    35   18   20 1
    36   20   29 1
    37   20   21 2
    38   21   22 1
    39   21   43 1
    40   22   26 1
    41   22   23 2
    42   23   24 1
    43   23   44 1
    44   24   25 2
    45   24   45 1
    46   25   26 1
    47   26   27 1
    48   26   28 1
    49   28   29 2
    50   28   46 1
    51   29   47 1
@<TRIPOS>MOLECULE
ZINC24370574
   51    54     0     0     0
SMALL
USER_CHARGES
3-methyl-N-[2-(piperidine-1-carbonyl)phenyl]quinoline-8-sulfonamide
@<TRIPOS>ATOM
      1 C1          5.0641    3.1338    5.5218 C.3       1 <0>        -0.1050
      2 C2          5.0018    1.6609    5.2093 C.ar      1 <0>        -0.1533
      3 C3          4.1691    0.8454    5.9220 C.ar      1 <0>        -0.0663
      4 C4          4.1421   -0.5235    5.5967 C.ar      1 <0>        -0.1160
      5 C5          3.3119   -1.4227    6.2856 C.ar      1 <0>        -0.0779
      6 C6          3.3148   -2.7398    5.9412 C.ar      1 <0>        -0.1322
      7 C7          4.1313   -3.2085    4.9137 C.ar      1 <0>        -0.0093
      8 C8          4.9476   -2.3652    4.2251 C.ar      1 <0>        -0.6029
      9 C9          4.9765   -0.9986    4.5545 C.ar      1 <0>         0.1992
     10 N1          5.7654   -0.1462    3.8932 N.ar      1 <0>        -0.4363
     11 C10         5.7929    1.1298    4.1934 C.ar      1 <0>         0.1441
     12 S1          5.9697   -2.9847    2.9305 S.o2      1 <0>         2.6147
     13 O1          5.7530   -4.3881    2.8782 O.2       1 <0>        -1.0080
     14 O2          7.2589   -2.4197    3.1252 O.2       1 <0>        -1.0255
     15 N2          5.3903   -2.3630    1.5092 N.2       1 <0>        -1.0803
     16 C11         5.4306   -0.9935    1.2827 C.ar      1 <0>         0.3078
     17 C12         6.6516   -0.3367    1.1890 C.ar      1 <0>        -0.1468
     18 C13         6.6889    1.0248    0.9698 C.ar      1 <0>        -0.0897
     19 C14         5.5132    1.7467    0.8361 C.ar      1 <0>        -0.1929
     20 C15         4.2934    1.1123    0.9207 C.ar      1 <0>        -0.0988
     21 C16         4.2385   -0.2662    1.1425 C.ar      1 <0>        -0.1856
     22 C17         2.9363   -0.9514    1.2347 C.2       1 <0>         0.5744
     23 O3          2.7975   -1.8941    1.9902 O.2       1 <0>        -0.5131
     24 N3          1.8999   -0.5330    0.4816 N.am      1 <0>        -0.6220
     25 C18         0.6196   -1.2535    0.5036 C.3       1 <0>         0.1146
     26 C19         0.2301   -1.6108   -0.9343 C.3       1 <0>        -0.1342
     27 C20         0.2216   -0.3400   -1.7870 C.3       1 <0>        -0.1168
     28 C21         1.6233    0.2740   -1.8046 C.3       1 <0>        -0.1357
     29 C22         2.0286    0.6526   -0.3766 C.3       1 <0>         0.0758
     30 H1          4.3741    3.3630    6.3472 H         1 <0>         0.0608
     31 H2          4.7743    3.7102    4.6309 H         1 <0>         0.0709
     32 H3          6.0894    3.4033    5.8154 H         1 <0>         0.0690
     33 H4          3.5491    1.2402    6.7133 H         1 <0>         0.1283
     34 H5          2.6747   -1.0714    7.0837 H         1 <0>         0.1225
     35 H6          2.6761   -3.4306    6.4715 H         1 <0>         0.1235
     36 H7          4.1157   -4.2581    4.6596 H         1 <0>         0.1368
     37 H8          6.4465    1.7864    3.6383 H         1 <0>         0.1533
     38 H9          7.5722   -0.8920    1.2921 H         1 <0>         0.1204
     39 H10         7.6403    1.5315    0.9022 H         1 <0>         0.1025
     40 H11         5.5537    2.8123    0.6650 H         1 <0>         0.1031
     41 H12         3.3805    1.6798    0.8162 H         1 <0>         0.1174
     42 H13         0.7257   -2.1715    1.1003 H         1 <0>         0.0899
     43 H14        -0.1542   -0.6126    0.9513 H         1 <0>         0.0528
     44 H15         0.9592   -2.3248   -1.3450 H         1 <0>         0.0678
     45 H16        -0.7717   -2.0651   -0.9407 H         1 <0>         0.0669
     46 H17        -0.0815   -0.5899   -2.8145 H         1 <0>         0.0587
     47 H18        -0.4894    0.3830   -1.3606 H         1 <0>         0.0585
     48 H19         2.3388   -0.4572   -2.2087 H         1 <0>         0.0682
     49 H20         1.6216    1.1737   -2.4375 H         1 <0>         0.0679
     50 H21         1.3706    1.4501   -0.0012 H         1 <0>         0.0552
     51 H22         3.0715    1.0021   -0.3652 H         1 <0>         0.1236
@<TRIPOS>BOND
     1    1    2 1
     2    1   30 1
     3    1   31 1
     4    1   32 1
     5    2   11 ar
     6    2    3 ar
     7    3    4 ar
     8    3   33 1
     9    4    9 ar
    10    4    5 ar
    11    5    6 ar
    12    5   34 1
    13    6    7 ar
    14    6   35 1
    15    7    8 ar
    16    7   36 1
    17    8    9 ar
    18    8   12 1
    19    9   10 ar
    20   10   11 ar
    21   11   37 1
    22   12   13 2
    23   12   14 2
    24   12   15 1
    25   15   16 1
    26   16   21 ar
    27   16   17 ar
    28   17   18 ar
    29   17   38 1
    30   18   19 ar
    31   18   39 1
    32   19   20 ar
    33   19   40 1
    34   20   21 ar
    35   20   41 1
    36   21   22 1
    37   22   23 2
    38   22   24 am
    39   24   29 1
    40   24   25 1
    41   25   26 1
    42   25   42 1
    43   25   43 1
    44   26   27 1
    45   26   44 1
    46   26   45 1
    47   27   28 1
    48   27   46 1
    49   27   47 1
    50   28   29 1
    51   28   48 1
    52   28   49 1
    53   29   50 1
    54   29   51 1
@<TRIPOS>MOLECULE
ZINC38699695
   44    46     0     0     0
SMALL
USER_CHARGES

@<TRIPOS>ATOM
      1 C1         -1.2524   -2.2703    2.1551 C.3       1 <0>         0.0305
      2 O1         -0.5790   -1.7419    1.0108 O.3       1 <0>        -0.3641
      3 C2         -0.0731   -2.7398    0.1219 C.3       1 <0>         0.0479
      4 C3          0.6137   -2.0738   -1.0425 C.2       1 <0>         0.5030
      5 O2          0.5869   -0.8662   -1.1524 O.2       1 <0>        -0.4799
      6 N1          1.2575   -2.8200   -1.9618 N.am      1 <0>        -0.5479
      7 C4          1.2258   -4.2871   -1.8881 C.3       1 <0>         0.1030
      8 C5          2.6505   -4.7994   -2.1369 C.3       1 <0>        -0.1322
      9 C6          3.0747   -4.4111   -3.5530 C.3       1 <0>        -0.0554
     10 C7          2.8502   -2.9402   -3.7865 C.ar      1 <0>        -0.2233
     11 C8          1.9638   -2.2094   -3.0075 C.ar      1 <0>         0.1829
     12 C9          1.7702   -0.8564   -3.2530 C.ar      1 <0>        -0.2110
     13 C10         2.4618   -0.2323   -4.2812 C.ar      1 <0>         0.2947
     14 C11         3.3469   -0.9661   -5.0615 C.ar      1 <0>        -0.2768
     15 C12         3.5438   -2.3119   -4.8080 C.ar      1 <0>        -0.0458
     16 N2          2.2689    1.1282   -4.5311 N.2       1 <0>        -1.0786
     17 S1          3.0961    1.8699   -5.7591 S.o2      1 <0>         2.5998
     18 O3          4.4692    1.8505   -5.3936 O.2       1 <0>        -1.0144
     19 O4          2.6223    1.2988   -6.9709 O.2       1 <0>        -1.0149
     20 C13         2.6024    3.5613   -5.7726 C.ar      1 <0>        -0.7049
     21 C14         1.5162    3.9597   -6.5325 C.ar      1 <0>         0.2242
     22 C15         1.1292    5.2892   -6.5424 C.ar      1 <0>        -0.1962
     23 C16         1.8270    6.2182   -5.7940 C.ar      1 <0>        -0.0254
     24 C17         2.9120    5.8216   -5.0352 C.ar      1 <0>        -0.1961
     25 C18         3.2971    4.4916   -5.0190 C.ar      1 <0>         0.2246
     26 F1          4.3540    4.1032   -4.2725 F         1 <0>        -0.1036
     27 F2          0.8342    3.0519   -7.2645 F         1 <0>        -0.1040
     28 H1         -2.1011   -2.8727    1.8313 H         1 <0>         0.0423
     29 H2         -0.5634   -2.8913    2.7275 H         1 <0>         0.0420
     30 H3         -1.6063   -1.4499    2.7794 H         1 <0>         0.0902
     31 H4          0.6404   -3.3706    0.6521 H         1 <0>         0.0780
     32 H5         -0.8973   -3.3520   -0.2441 H         1 <0>         0.0795
     33 H6          0.8883   -4.5999   -0.9000 H         1 <0>         0.0815
     34 H7          0.5535   -4.6806   -2.6505 H         1 <0>         0.0756
     35 H8          3.3318   -4.3489   -1.4151 H         1 <0>         0.0698
     36 H9          2.6716   -5.8843   -2.0339 H         1 <0>         0.0751
     37 H10         4.1321   -4.6393   -3.6870 H         1 <0>         0.0647
     38 H11         2.4898   -4.9831   -4.2733 H         1 <0>         0.0591
     39 H12         1.0811   -0.2901   -2.6440 H         1 <0>         0.1683
     40 H13         3.8880   -0.4836   -5.8619 H         1 <0>         0.0960
     41 H14         4.2327   -2.8787   -5.4167 H         1 <0>         0.1055
     42 H15         0.2819    5.6004   -7.1355 H         1 <0>         0.1456
     43 H16         1.5244    7.2549   -5.8023 H         1 <0>         0.1453
     44 H17         3.4569    6.5486   -4.4513 H         1 <0>         0.1457
@<TRIPOS>BOND
     1    1    2 1
     2    1   28 1
     3    1   29 1
     4    1   30 1
     5    2    3 1
     6    3    4 1
     7    3   31 1
     8    3   32 1
     9    4    5 2
    10    4    6 am
    11    6   11 1
    12    6    7 1
    13    7    8 1
    14    7   33 1
    15    7   34 1
    16    8    9 1
    17    8   35 1
    18    8   36 1
    19    9   10 1
    20    9   37 1
    21    9   38 1
    22   10   15 ar
    23   10   11 ar
    24   11   12 ar
    25   12   13 ar
    26   12   39 1
    27   13   14 ar
    28   13   16 1
    29   14   15 ar
    30   14   40 1
    31   15   41 1
    32   16   17 1
    33   17   18 2
    34   17   19 2
    35   17   20 1
    36   20   25 ar
    37   20   21 ar
    38   21   22 ar
    39   21   27 1
    40   22   23 ar
    41   22   42 1
    42   23   24 ar
    43   23   43 1
    44   24   25 ar
    45   24   44 1
    46   25   26 1
@<TRIPOS>MOLECULE
ZINC54422731
   30    32     0     0     0
SMALL
USER_CHARGES

@<TRIPOS>ATOM
      1 C1         -0.0163    1.3513    0.0095 C.2       1 <0>        -0.1824
      2 C2          1.1833    2.0380    0.0017 C.2       1 <0>        -0.0384
      3 C3          2.3426    1.3358   -0.0131 C.2       1 <0>        -0.6898
      4 S1          1.7535   -0.3495   -0.0166 S.3       1 <0>         0.1476
      5 C4          0.0021   -0.0041    0.0020 C.2       1 <0>        -0.1646
      6 S2          4.0007    1.9316   -0.0263 S.o2      1 <0>         2.6842
      7 O1          4.7986    0.8998   -0.5901 O.2       1 <0>        -0.9897
      8 O2          3.9565    3.2437   -0.5701 O.2       1 <0>        -0.9928
      9 N1          4.4769    2.0892    1.5520 N.2       1 <0>        -1.0512
     10 C5          5.6638    2.5133    1.8285 C.2       1 <0>         0.4955
     11 O3          6.5169    2.8284    0.8318 O.3       1 <0>        -0.7005
     12 C6          6.0971    2.6567    3.2647 C.3       1 <0>         0.0843
     13 H1          5.2727    2.4358    3.9426 H         1 <0>         0.1083
     14 C7          6.6700    4.0690    3.5317 C.3       1 <0>        -0.1360
     15 C8          7.8121    3.7865    4.4892 C.2       1 <0>         0.1474
     16 N2          8.0700    2.5179    4.4484 N.2       1 <0>        -0.2679
     17 O4          7.2354    1.8176    3.5463 O.3       1 <0>        -0.1623
     18 C9          8.5045    4.7785    5.3179 C.2       1 <0>        -0.0945
     19 C10         9.5516    4.5965    6.2045 C.2       1 <0>        -0.1102
     20 C11        10.0394    5.6927    6.8743 C.2       1 <0>        -0.1364
     21 C12         9.4824    6.9136    6.6470 C.2       1 <0>        -0.1260
     22 S3          8.2219    6.5371    5.4404 S.3       1 <0>         0.1616
     23 Cl1         9.8962    8.4471    7.3476 Cl        1 <0>         0.0172
     24 H2         -0.9542    1.8866    0.0258 H         1 <0>         0.1377
     25 H3          1.1967    3.1179    0.0070 H         1 <0>         0.1445
     26 H4         -0.8275   -0.6955    0.0065 H         1 <0>         0.1894
     27 H5          7.0401    4.5170    2.6095 H         1 <0>         0.1214
     28 H6          5.9214    4.7079    4.0002 H         1 <0>         0.1045
     29 H7          9.9750    3.6162    6.3663 H         1 <0>         0.1522
     30 H8         10.8556    5.5866    7.5736 H         1 <0>         0.1470
@<TRIPOS>BOND
     1    1    5 2
     2    1    2 1
     3    1   24 1
     4    2    3 2
     5    2   25 1
     6    3    4 1
     7    3    6 1
     8    4    5 1
     9    5   26 1
    10    6    7 2
    11    6    8 2
    12    6    9 1
    13    9   10 2
    14   10   11 1
    15   10   12 1
    16   12   13 1
    17   12   17 1
    18   12   14 1
    19   14   15 1
    20   14   27 1
    21   14   28 1
    22   15   16 2
    23   15   18 1
    24   16   17 1
    25   18   22 1
    26   18   19 2
    27   19   20 1
    28   19   29 1
    29   20   21 2
    30   20   30 1
    31   21   22 1
    32   21   23 1
@<TRIPOS>MOLECULE
ZINC62545953
   46    49     0     0     0
SMALL
USER_CHARGES

@<TRIPOS>ATOM
      1 C1         -0.0184    1.5028    0.0103 C.3       1 <0>        -0.1676
      2 C2          0.0021   -0.0041    0.0020 C.2       1 <0>         0.5177
      3 O1          0.0203   -0.6161    1.0490 O.2       1 <0>        -0.5195
      4 N1          0.0001   -0.6716   -1.1688 N.am      1 <0>        -0.5572
      5 C3         -0.0147   -0.0447   -2.4932 C.3       1 <0>         0.1011
      6 C4         -0.0110   -1.2130   -3.4925 C.3       1 <0>        -0.0838
      7 C5          0.0061   -2.4535   -2.6279 C.ar      1 <0>        -0.1638
      8 C6          0.0178   -2.0639   -1.2978 C.ar      1 <0>         0.1756
      9 C7          0.0401   -3.0444   -0.3045 C.ar      1 <0>        -0.1529
     10 C8          0.0547   -4.3801   -0.6463 C.ar      1 <0>         0.0026
     11 C9          0.0472   -4.7583   -1.9761 C.ar      1 <0>        -0.6328
     12 C10         0.0163   -3.7929   -2.9656 C.ar      1 <0>         0.0188
     13 S1          0.0664   -6.4663   -2.4088 S.o2      1 <0>         2.6070
     14 O2          0.6060   -6.5468   -3.7209 O.2       1 <0>        -1.0251
     15 O3          0.6372   -7.1581   -1.3066 O.2       1 <0>        -1.0239
     16 N2         -1.5100   -6.9625   -2.5140 N.2       1 <0>        -1.0772
     17 C11        -1.8045   -8.2864   -2.8454 C.ar      1 <0>         0.2456
     18 C12        -3.1289   -8.7115   -2.9418 C.ar      1 <0>        -0.1512
     19 C13        -3.3745  -10.0312   -3.2724 C.ar      1 <0>        -0.1051
     20 C14        -2.2973  -10.8868   -3.4968 C.ar      1 <0>         0.0269
     21 N3         -1.0500  -10.4467   -3.3955 N.ar      1 <0>        -0.4278
     22 C15        -0.7810   -9.1948   -3.0886 C.ar      1 <0>        -0.0401
     23 C16        -2.5483  -12.3047   -3.8522 C.ar      1 <0>         0.0052
     24 C17        -3.8548  -12.7764   -3.9665 C.ar      1 <0>        -0.1253
     25 C18        -4.0824  -14.0968   -4.2974 C.ar      1 <0>        -0.1208
     26 C19        -3.0169  -14.9515   -4.5154 C.ar      1 <0>        -0.1406
     27 C20        -1.7181  -14.4889   -4.4030 C.ar      1 <0>        -0.1221
     28 C21        -1.4786  -13.1690   -4.0787 C.ar      1 <0>        -0.1039
     29 H1          1.0042    1.8801    0.0026 H         1 <0>         0.0981
     30 H2         -0.5455    1.8639   -0.8728 H         1 <0>         0.0834
     31 H3         -0.5286    1.8543    0.9071 H         1 <0>         0.0981
     32 H4         -0.9157    0.5560   -2.6171 H         1 <0>         0.0859
     33 H5          0.8736    0.5722   -2.6294 H         1 <0>         0.0852
     34 H6         -0.9109   -1.1904   -4.1071 H         1 <0>         0.0941
     35 H7          0.8798   -1.1742   -4.1194 H         1 <0>         0.0931
     36 H8          0.0464   -2.7556    0.7361 H         1 <0>         0.1427
     37 H9          0.0723   -5.1334    0.1274 H         1 <0>         0.1434
     38 H10         0.0114   -4.0866   -4.0049 H         1 <0>         0.1407
     39 H11        -3.9438   -8.0260   -2.7621 H         1 <0>         0.1262
     40 H12        -4.3882  -10.3946   -3.3555 H         1 <0>         0.1205
     41 H13         0.2471   -8.8712   -3.0200 H         1 <0>         0.1295
     42 H14        -4.6875  -12.1101   -3.7961 H         1 <0>         0.1224
     43 H15        -5.0944  -14.4635   -4.3858 H         1 <0>         0.1165
     44 H16        -3.1996  -15.9840   -4.7742 H         1 <0>         0.1134
     45 H17        -0.8899  -15.1607   -4.5740 H         1 <0>         0.1164
     46 H18        -0.4642  -12.8076   -3.9962 H         1 <0>         0.1307
@<TRIPOS>BOND
     1    1    2 1
     2    1   29 1
     3    1   30 1
     4    1   31 1
     5    2    3 2
     6    2    4 am
     7    4    8 1
     8    4    5 1
     9    5    6 1
    10    5   32 1
    11    5   33 1
    12    6    7 1
    13    6   34 1
    14    6   35 1
    15    7   12 ar
    16    7    8 ar
    17    8    9 ar
    18    9   10 ar
    19    9   36 1
    20   10   11 ar
    21   10   37 1
    22   11   12 ar
    23   11   13 1
    24   12   38 1
    25   13   14 2
    26   13   15 2
    27   13   16 1
    28   16   17 1
    29   17   22 ar
    30   17   18 ar
    31   18   19 ar
    32   18   39 1
    33   19   20 ar
    34   19   40 1
    35   20   21 ar
    36   20   23 1
    37   21   22 ar
    38   22   41 1
    39   23   28 ar
    40   23   24 ar
    41   24   25 ar
    42   24   42 1
    43   25   26 ar
    44   25   43 1
    45   26   27 ar
    46   26   44 1
    47   27   28 ar
    48   27   45 1
    49   28   46 1
@<TRIPOS>MOLECULE
ZINC66505750
   41    43     0     0     0
SMALL
USER_CHARGES

@<TRIPOS>ATOM
      1 C1         -0.1125    1.3765    0.6371 C.ar      1 <0>        -0.0346
      2 C2          1.0319    2.1361    0.7250 C.ar      1 <0>        -0.1123
      3 C3          2.2516    1.6109    0.3105 C.ar      1 <0>         0.1224
      4 C4          2.3209    0.3167   -0.1949 C.ar      1 <0>        -0.1334
      5 C5          1.1818   -0.4504   -0.2871 C.ar      1 <0>        -0.0701
      6 C6         -0.0477    0.0735    0.1296 C.ar      1 <0>        -0.0354
      7 C7         -1.2676   -0.7425    0.0341 C.2       1 <0>         0.3875
      8 O1         -1.3172   -1.9537    0.6263 O.3       1 <0>        -0.6347
      9 C8         -2.3695   -0.2658   -0.6663 C.2       1 <0>        -0.4160
     10 C9         -3.6192   -0.9613   -0.5946 C.1       1 <0>         0.3255
     11 N1         -4.6106   -1.5130   -0.5377 N.1       1 <0>        -0.5388
     12 C10        -2.2523    0.9493   -1.4787 C.2       1 <0>         0.6095
     13 O2         -1.1656    1.4747   -1.6344 O.2       1 <0>        -0.5699
     14 N2         -3.3480    1.4844   -2.0528 N.am      1 <0>        -0.6305
     15 C11        -4.7166    0.9588   -1.9422 C.3       1 <0>         0.1043
     16 C12        -5.6295    1.8778   -2.7811 C.3       1 <0>        -0.1320
     17 C13        -4.6382    2.5388   -3.7750 C.3       1 <0>        -0.1336
     18 C14        -3.3736    2.6972   -2.8906 C.3       1 <0>         0.1117
     19 N3          3.4112    2.3863    0.4017 N.pl3     1 <0>        -0.2823
     20 C15         4.6609    2.0042    0.0305 C.2       1 <0>         0.0625
     21 C16         5.4962    3.0389    0.2793 C.2       1 <0>        -0.2281
     22 C17         4.7388    4.0853    0.8181 C.2       1 <0>        -0.0269
     23 N4          3.4910    3.6982    0.8866 N.2       1 <0>        -0.2286
     24 C18         5.2694    5.4307    1.2417 C.3       1 <0>         0.5593
     25 F1          5.2163    6.3149    0.1589 F         1 <0>        -0.1687
     26 F2          4.4897    5.9303    2.2904 F         1 <0>        -0.1674
     27 F3          6.5947    5.2958    1.6691 F         1 <0>        -0.1666
     28 H1         -1.0582    1.7835    0.9633 H         1 <0>         0.1274
     29 H2          0.9829    3.1416    1.1161 H         1 <0>         0.1316
     30 H3          3.2699   -0.0868   -0.5158 H         1 <0>         0.1259
     31 H4          1.2365   -1.4549   -0.6799 H         1 <0>         0.1330
     32 H5         -4.7557   -0.0583   -2.3320 H         1 <0>         0.0670
     33 H6         -5.0353    0.9711   -0.9000 H         1 <0>         0.0624
     34 H7         -6.3789    1.2936   -3.3151 H         1 <0>         0.0753
     35 H8         -6.1030    2.6305   -2.1507 H         1 <0>         0.0713
     36 H9         -4.4446    1.8859   -4.6261 H         1 <0>         0.0722
     37 H10        -5.0059    3.5103   -4.1055 H         1 <0>         0.0767
     38 H11        -3.4531    3.5875   -2.2668 H         1 <0>         0.0576
     39 H12        -2.4800    2.7475   -3.5127 H         1 <0>         0.0724
     40 H13         4.9375    1.0474   -0.3873 H         1 <0>         0.1902
     41 H14         6.5602    3.0545    0.0949 H         1 <0>         0.1640
@<TRIPOS>BOND
     1    1    6 ar
     2    1    2 ar
     3    1   28 1
     4    2    3 ar
     5    2   29 1
     6    3    4 ar
     7    3   19 1
     8    4    5 ar
     9    4   30 1
    10    5    6 ar
    11    5   31 1
    12    6    7 1
    13    7    8 1
    14    7    9 2
    15    9   10 1
    16    9   12 1
    17   10   11 3
    18   12   13 2
    19   12   14 am
    20   14   18 1
    21   14   15 1
    22   15   16 1
    23   15   32 1
    24   15   33 1
    25   16   17 1
    26   16   34 1
    27   16   35 1
    28   17   18 1
    29   17   36 1
    30   17   37 1
    31   18   38 1
    32   18   39 1
    33   19   23 1
    34   19   20 1
    35   20   21 2
    36   20   40 1
    37   21   22 1
    38   21   41 1
    39   22   23 2
    40   22   24 1
    41   24   25 1
    42   24   26 1
    43   24   27 1
@<TRIPOS>MOLECULE
ZINC32843926
   47    49     0     0     0
SMALL
USER_CHARGES
1-[4-(2-ethoxyphenyl)piperazin-1-yl]-2-(4-methyl-2-thioxo-3H-thiazol-5-yl)ethanone
@<TRIPOS>ATOM
      1 C1          1.0269    3.5358    0.0112 C.3       1 <0>        -0.1528
      2 C2          1.2479    2.0219    0.0010 C.3       1 <0>         0.0495
      3 O1         -0.0164    1.3559    0.0095 O.3       1 <0>        -0.2918
      4 C3          0.0021   -0.0041    0.0020 C.ar      1 <0>         0.1557
      5 C4          1.2098   -0.6818   -0.0189 C.ar      1 <0>        -0.2090
      6 C5          1.2271   -2.0646   -0.0211 C.ar      1 <0>        -0.0814
      7 C6          0.0408   -2.7745   -0.0131 C.ar      1 <0>        -0.1498
      8 C7         -1.1687   -2.1057    0.0020 C.ar      1 <0>        -0.1077
      9 C8         -1.1938   -0.7187    0.0096 C.ar      1 <0>         0.0549
     10 N1         -2.4173   -0.0390    0.0244 N.pl3     1 <0>        -0.4874
     11 C9         -3.1547   -0.3095    1.2658 C.3       1 <0>         0.0458
     12 C10        -4.3955    0.5879    1.3248 C.3       1 <0>         0.1116
     13 N2         -5.1687    0.3980    0.0881 N.am      1 <0>        -0.6223
     14 C11        -4.4650    0.5177   -1.1979 C.3       1 <0>         0.1168
     15 C12        -3.2215   -0.3769   -1.1575 C.3       1 <0>         0.0488
     16 C13        -6.4871    0.1219    0.1322 C.2       1 <0>         0.5140
     17 O2         -7.1093   -0.0313   -0.8976 O.2       1 <0>        -0.5160
     18 C14        -7.1882    0.0036    1.4609 C.3       1 <0>        -0.0277
     19 C15        -8.6452   -0.3075    1.2341 C.2       1 <0>        -0.2457
     20 C16        -9.2467   -1.4958    1.1295 C.2       1 <0>         0.0932
     21 N3        -10.5926   -1.5290    0.9234 N.2       1 <0>        -0.5715
     22 C17       -11.2742   -0.3645    0.8317 C.2       1 <0>         0.2872
     23 S1        -12.9492   -0.1173    0.5784 S.3       1 <0>        -0.6936
     24 S2        -10.0194    0.8150    1.0430 S.3       1 <0>        -0.0650
     25 C18        -8.4531   -2.7723    1.2376 C.3       1 <0>        -0.0777
     26 H1          2.0001    4.0485    0.0047 H         1 <0>         0.0763
     27 H2          0.4694    3.8189    0.9162 H         1 <0>         0.0676
     28 H3          0.4523    3.8285   -0.8800 H         1 <0>         0.0676
     29 H4          1.8054    1.7388   -0.9040 H         1 <0>         0.0594
     30 H5          1.8225    1.7292    0.8921 H         1 <0>         0.0595
     31 H6          2.1383   -0.1303   -0.0293 H         1 <0>         0.1294
     32 H7          2.1698   -2.5913   -0.0336 H         1 <0>         0.1244
     33 H8          0.0592   -3.8544   -0.0191 H         1 <0>         0.1233
     34 H9         -2.0940   -2.6627    0.0074 H         1 <0>         0.1258
     35 H10        -3.4629   -1.3652    1.2865 H         1 <0>         0.0432
     36 H11        -2.5074   -0.0995    2.1300 H         1 <0>         0.0878
     37 H12        -5.0072    0.3109    2.1960 H         1 <0>         0.0933
     38 H13        -4.0839    1.6390    1.4148 H         1 <0>         0.0786
     39 H14        -5.1317    0.1969   -2.0119 H         1 <0>         0.0978
     40 H15        -4.1688    1.5649   -1.3577 H         1 <0>         0.0735
     41 H16        -2.6230   -0.2162   -2.0664 H         1 <0>         0.0863
     42 H17        -3.5288   -1.4317   -1.1026 H         1 <0>         0.0425
     43 H18        -6.7277   -0.8048    2.0478 H         1 <0>         0.1002
     44 H19        -7.0970    0.9527    2.0094 H         1 <0>         0.0965
     45 H20        -9.1276   -3.6340    1.1253 H         1 <0>         0.0671
     46 H21        -7.9622   -2.8167    2.2210 H         1 <0>         0.0614
     47 H22        -7.6903   -2.7980    0.4455 H         1 <0>         0.0604
@<TRIPOS>BOND
     1    1    2 1
     2    1   26 1
     3    1   27 1
     4    1   28 1
     5    2    3 1
     6    2   29 1
     7    2   30 1
     8    3    4 1
     9    4    9 ar
    10    4    5 ar
    11    5    6 ar
    12    5   31 1
    13    6    7 ar
    14    6   32 1
    15    7    8 ar
    16    7   33 1
    17    8    9 ar
    18    8   34 1
    19    9   10 1
    20   10   15 1
    21   10   11 1
    22   11   12 1
    23   11   35 1
    24   11   36 1
    25   12   13 1
    26   12   37 1
    27   12   38 1
    28   13   14 1
    29   13   16 am
    30   14   15 1
    31   14   39 1
    32   14   40 1
    33   15   41 1
    34   15   42 1
    35   16   17 2
    36   16   18 1
    37   18   19 1
    38   18   43 1
    39   18   44 1
    40   19   24 1
    41   19   20 2
    42   20   21 1
    43   20   25 1
    44   21   22 2
    45   22   23 1
    46   22   24 1
    47   25   45 1
    48   25   46 1
    49   25   47 1
@<TRIPOS>MOLECULE
ZINC40475849
   40    42     0     0     0
SMALL
USER_CHARGES

@<TRIPOS>ATOM
      1 C1         -0.0173    1.4248    0.0099 C.3       1 <0>         0.0271
      2 O1          0.0021   -0.0041    0.0020 O.3       1 <0>        -0.3093
      3 C2          0.6062   -0.6075   -1.0564 C.ar      1 <0>         0.0958
      4 C3          1.1729    0.1590   -2.0621 C.ar      1 <0>        -0.1719
      5 C4          1.7870   -0.4560   -3.1371 C.ar      1 <0>        -0.1005
      6 C5          1.8372   -1.8356   -3.2121 C.ar      1 <0>        -0.0645
      7 C6          1.2734   -2.6062   -2.2124 C.ar      1 <0>        -0.1313
      8 C7          0.6617   -1.9961   -1.1290 C.ar      1 <0>         0.0945
      9 O2          0.1119   -2.7526   -0.1417 O.3       1 <0>        -0.3091
     10 C8          0.2064   -4.1715   -0.2827 C.3       1 <0>         0.0267
     11 C9          2.5075   -2.5009   -4.3865 C.3       1 <0>         0.0756
     12 H1          2.4452   -3.5824   -4.2663 H         1 <0>         0.0901
     13 C10         3.9389   -2.0973   -4.4220 C.2       1 <0>        -0.2873
     14 C11         4.7241   -1.7964   -5.4955 C.2       1 <0>         0.1152
     15 N1          5.9833   -1.4753   -5.1996 N.2       1 <0>        -0.5587
     16 C12         6.4196   -1.4488   -3.9589 C.2       1 <0>         0.2799
     17 S1          8.0335   -1.0502   -3.3749 S.3       1 <0>        -0.7308
     18 S2          5.0621   -1.8867   -3.0636 S.3       1 <0>         0.0590
     19 S3          4.0569   -1.8427   -7.1442 S.3       1 <0>        -0.0628
     20 C13         2.4811   -2.7160   -6.8856 C.3       1 <0>        -0.1019
     21 C14         1.7819   -2.0986   -5.6691 C.3       1 <0>        -0.0686
     22 H2          1.7861   -1.0125   -5.7612 H         1 <0>         0.1250
     23 C15         0.3575   -2.5872   -5.6117 C.2       1 <0>         0.4706
     24 O3         -0.0344   -3.1944   -4.6434 O.2       1 <0>        -0.4871
     25 O4         -0.4759   -2.3478   -6.6363 O.3       1 <0>        -0.3522
     26 C16        -1.8120   -2.8399   -6.5145 C.3       1 <0>         0.0341
     27 H3          1.0053    1.8021    0.0021 H         1 <0>         0.0552
     28 H4         -0.5445    1.7859   -0.8732 H         1 <0>         0.0519
     29 H5         -0.5275    1.7763    0.9067 H         1 <0>         0.0967
     30 H6          1.1344    1.2368   -2.0063 H         1 <0>         0.1331
     31 H7          2.2283    0.1425   -3.9203 H         1 <0>         0.1245
     32 H8          1.3136   -3.6837   -2.2735 H         1 <0>         0.1336
     33 H9         -0.2705   -4.6540    0.5704 H         1 <0>         0.0961
     34 H10        -0.2940   -4.4795   -1.2008 H         1 <0>         0.0548
     35 H11         1.2558   -4.4633   -0.3254 H         1 <0>         0.0546
     36 H12         1.8504   -2.6044   -7.7676 H         1 <0>         0.1260
     37 H13         2.6730   -3.7733   -6.7024 H         1 <0>         0.0965
     38 H14        -1.7910   -3.9238   -6.4011 H         1 <0>         0.0596
     39 H15        -2.2858   -2.3923   -5.6408 H         1 <0>         0.0597
     40 H16        -2.3782   -2.5790   -7.4085 H         1 <0>         0.1004
@<TRIPOS>BOND
     1    1    2 1
     2    1   27 1
     3    1   28 1
     4    1   29 1
     5    2    3 1
     6    3    8 ar
     7    3    4 ar
     8    4    5 ar
     9    4   30 1
    10    5    6 ar
    11    5   31 1
    12    6    7 ar
    13    6   11 1
    14    7    8 ar
    15    7   32 1
    16    8    9 1
    17    9   10 1
    18   10   33 1
    19   10   34 1
    20   10   35 1
    21   11   12 1
    22   11   21 1
    23   11   13 1
    24   13   18 1
    25   13   14 2
    26   14   15 1
    27   14   19 1
    28   15   16 2
    29   16   17 1
    30   16   18 1
    31   19   20 1
    32   20   21 1
    33   20   36 1
    34   20   37 1
    35   21   22 1
    36   21   23 1
    37   23   24 2
    38   23   25 1
    39   25   26 1
    40   26   38 1
    41   26   39 1
    42   26   40 1
@<TRIPOS>MOLECULE
ZINC55619461
   35    36     0     0     0
SMALL
USER_CHARGES

@<TRIPOS>ATOM
      1 C1          2.2532    0.3815    0.9196 C.3       1 <0>        -0.0888
      2 C2          1.2027   -0.5871    0.4407 C.ar      1 <0>        -0.1268
      3 C3          1.3841   -1.2736   -0.7439 C.ar      1 <0>        -0.0810
      4 C4          0.4199   -2.1626   -1.1845 C.ar      1 <0>        -0.1471
      5 C5         -0.7283   -2.3671   -0.4400 C.ar      1 <0>        -0.0765
      6 C6         -0.9152   -1.6835    0.7454 C.ar      1 <0>        -0.1588
      7 C7          0.0537   -0.7946    1.1931 C.ar      1 <0>         0.2712
      8 N1         -0.1297   -0.1062    2.3950 N.2       1 <0>        -1.1261
      9 S1         -0.1090   -0.9291    3.8320 S.o2      1 <0>         2.6375
     10 O1         -1.2390   -1.7905    3.8230 O.2       1 <0>        -1.0204
     11 O2          1.2161   -1.4125    4.0041 O.2       1 <0>        -1.0295
     12 C8         -0.3849    0.2503    5.1117 C.2       1 <0>        -0.7322
     13 C9          0.6005    0.9769    5.7878 C.2       1 <0>         0.1663
     14 N2          0.0106    1.7483    6.6646 N.2       1 <0>        -0.2913
     15 N3         -1.3713    1.5373    6.5748 N.pl3     1 <0>        -0.3680
     16 C10        -1.5894    0.6180    5.6107 C.2       1 <0>         0.2221
     17 Cl1        -3.1356    0.0123    5.1045 Cl        1 <0>         0.0253
     18 C11        -2.3988    2.2017    7.3805 C.3       1 <0>         0.0928
     19 C12         2.0855    0.8865    5.5481 C.3       1 <0>        -0.1009
     20 C13        -2.1665   -1.9060    1.5551 C.3       1 <0>        -0.0913
     21 Br1         0.6714   -3.0997   -2.8076 Br        1 <0>        -0.0999
     22 H1          2.9761   -0.1453    1.5426 H         1 <0>         0.0566
     23 H2          2.7634    0.8180    0.0610 H         1 <0>         0.0409
     24 H3          1.7800    1.1723    1.5016 H         1 <0>         0.0766
     25 H4          2.2794   -1.1160   -1.3271 H         1 <0>         0.1120
     26 H5         -1.4793   -3.0617   -0.7864 H         1 <0>         0.1107
     27 H6         -2.7222    3.1128    6.8772 H         1 <0>         0.0804
     28 H7         -3.2509    1.5336    7.5054 H         1 <0>         0.0887
     29 H8         -1.9877    2.4530    8.3582 H         1 <0>         0.0951
     30 H9          2.3755    1.6112    4.7873 H         1 <0>         0.0867
     31 H10         2.6169    1.1008    6.4753 H         1 <0>         0.0727
     32 H11         2.3383   -0.1179    5.2083 H         1 <0>         0.1166
     33 H12        -2.0383   -2.7840    2.1883 H         1 <0>         0.0762
     34 H13        -2.3556   -1.0326    2.1792 H         1 <0>         0.0781
     35 H14        -3.0108   -2.0625    0.8837 H         1 <0>         0.0321
@<TRIPOS>BOND
     1    1    2 1
     2    1   22 1
     3    1   23 1
     4    1   24 1
     5    2    7 ar
     6    2    3 ar
     7    3    4 ar
     8    3   25 1
     9    4    5 ar
    10    4   21 1
    11    5    6 ar
    12    5   26 1
    13    6    7 ar
    14    6   20 1
    15    7    8 1
    16    8    9 1
    17    9   10 2
    18    9   11 2
    19    9   12 1
    20   12   16 2
    21   12   13 1
    22   13   14 2
    23   13   19 1
    24   14   15 1
    25   15   16 1
    26   15   18 1
    27   16   17 1
    28   18   27 1
    29   18   28 1
    30   18   29 1
    31   19   30 1
    32   19   31 1
    33   19   32 1
    34   20   33 1
    35   20   34 1
    36   20   35 1
@<TRIPOS>MOLECULE
ZINC64467640
   35    36     0     0     0
SMALL
USER_CHARGES

@<TRIPOS>ATOM
      1 C1         -0.0184    1.5028    0.0103 C.3       1 <0>        -0.1201
      2 C2          0.0021   -0.0041    0.0020 C.ar      1 <0>        -0.0750
      3 C3          0.0058   -0.6889   -1.1956 C.ar      1 <0>        -0.0838
      4 C4          0.0251   -2.0722   -1.2050 C.ar      1 <0>        -0.1206
      5 C5          0.0402   -2.7784   -0.0150 C.ar      1 <0>        -0.0380
      6 C6          0.0367   -2.1065    1.1894 C.ar      1 <0>        -0.5799
      7 C7          0.0231   -0.7101    1.2062 C.ar      1 <0>        -0.0038
      8 C8          0.0249    0.0165    2.4924 C.2       1 <0>         0.4993
      9 O1         -1.0261    0.3006    3.0310 O.2       1 <0>        -0.4708
     10 O2          1.1922    0.3640    3.0680 O.3       1 <0>        -0.3208
     11 C9          1.1192    1.0649    4.3112 C.3       1 <0>         0.0369
     12 S1          0.0560   -3.0076    2.7034 S.o2      1 <0>         2.5832
     13 O3         -0.9733   -2.4596    3.5155 O.2       1 <0>        -1.0094
     14 O4          0.1003   -4.3847    2.3558 O.2       1 <0>        -1.0225
     15 N1          1.4888   -2.6640    3.4594 N.2       1 <0>        -1.0690
     16 C10         1.7831   -3.2446    4.6958 C.ar      1 <0>         0.2944
     17 C11         0.8774   -4.1146    5.2893 C.ar      1 <0>        -0.2615
     18 C12         1.1711   -4.6869    6.5114 C.ar      1 <0>        -0.0329
     19 C13         2.3658   -4.3941    7.1447 C.ar      1 <0>        -0.1892
     20 C14         3.2699   -3.5279    6.5560 C.ar      1 <0>        -0.0489
     21 C15         2.9845   -2.9573    5.3311 C.ar      1 <0>        -0.1754
     22 Br1         2.7636   -5.1788    8.8186 Br        1 <0>        -0.1010
     23 H1          1.0042    1.8801    0.0026 H         1 <0>         0.0800
     24 H2         -0.5455    1.8639   -0.8728 H         1 <0>         0.0751
     25 H3         -0.5286    1.8543    0.9071 H         1 <0>         0.0668
     26 H4         -0.0066   -0.1439   -2.1280 H         1 <0>         0.1345
     27 H5          0.0279   -2.6034   -2.1454 H         1 <0>         0.1346
     28 H6          0.0545   -3.8583   -0.0295 H         1 <0>         0.1472
     29 H7          2.1268    1.2838    4.6646 H         1 <0>         0.1015
     30 H8          0.5727    1.9975    4.1710 H         1 <0>         0.0517
     31 H9          0.6024    0.4480    5.0463 H         1 <0>         0.0654
     32 H10        -0.0556   -4.3430    4.7957 H         1 <0>         0.1032
     33 H11         0.4672   -5.3634    6.9733 H         1 <0>         0.1117
     34 H12         4.2016   -3.3009    7.0528 H         1 <0>         0.1149
     35 H13         3.6925   -2.2848    4.8699 H         1 <0>         0.1222
@<TRIPOS>BOND
     1    1    2 1
     2    1   23 1
     3    1   24 1
     4    1   25 1
     5    2    7 ar
     6    2    3 ar
     7    3    4 ar
     8    3   26 1
     9    4    5 ar
    10    4   27 1
    11    5    6 ar
    12    5   28 1
    13    6    7 ar
    14    6   12 1
    15    7    8 1
    16    8    9 2
    17    8   10 1
    18   10   11 1
    19   11   29 1
    20   11   30 1
    21   11   31 1
    22   12   13 2
    23   12   14 2
    24   12   15 1
    25   15   16 1
    26   16   21 ar
    27   16   17 ar
    28   17   18 ar
    29   17   32 1
    30   18   19 ar
    31   18   33 1
    32   19   20 ar
    33   19   22 1
    34   20   21 ar
    35   20   34 1
    36   21   35 1
@<TRIPOS>MOLECULE
ZINC66247587
   35    37     0     0     0
SMALL
USER_CHARGES

@<TRIPOS>ATOM
      1 C1         -0.0166    1.3753    0.0096 C.ar      1 <0>        -0.1182
      2 C2          1.1701    2.0869    0.0021 C.ar      1 <0>        -0.0994
      3 C3          2.3825    1.4218   -0.0131 C.ar      1 <0>        -0.1148
      4 C4          2.4156    0.0410   -0.0213 C.ar      1 <0>        -0.0167
      5 C5          1.2214   -0.6825   -0.0138 C.ar      1 <0>        -0.0661
      6 C6          0.0021   -0.0041    0.0020 C.ar      1 <0>        -0.0839
      7 C7          1.2486   -2.1601   -0.0230 C.2       1 <0>         0.0120
      8 C8          0.1130   -2.8441   -0.0158 C.2       1 <0>        -0.6704
      9 S1          0.1454   -4.6058   -0.0268 S.o2      1 <0>         2.6106
     10 O1         -0.7530   -5.0222   -1.0459 O.2       1 <0>        -1.0041
     11 O2          1.5143   -4.9868   -0.0156 O.2       1 <0>        -1.0058
     12 N1         -0.4997   -5.1163    1.4104 N.2       1 <0>        -1.0063
     13 C9         -0.6017   -6.4710    1.6815 C.2       1 <0>         0.4962
     14 N2         -1.0847   -7.0737    2.7518 N.2       1 <0>        -0.5817
     15 C10        -1.1047   -8.4021    2.8439 C.2       1 <0>         0.1312
     16 C11        -0.6159   -9.1509    1.8102 C.2       1 <0>        -0.2463
     17 S2         -0.1215   -7.8647    0.6711 S.3       1 <0>        -0.2091
     18 C12        -1.6504   -9.0610    4.0538 C.ar      1 <0>         0.0419
     19 C13        -1.6712  -10.4553    4.1651 C.ar      1 <0>        -0.1655
     20 C14        -2.1880  -11.0272    5.3085 C.ar      1 <0>         0.0909
     21 N3         -2.6586  -10.2779    6.2877 N.ar      1 <0>        -0.4982
     22 C15        -2.6576   -8.9597    6.2227 C.ar      1 <0>         0.0890
     23 C16        -2.1536   -8.3058    5.1183 C.ar      1 <0>        -0.1416
     24 Cl1         3.9381   -0.7929   -0.0415 Cl        1 <0>        -0.0568
     25 H1         -0.9599    1.9011    0.0260 H         1 <0>         0.1335
     26 H2          1.1494    3.1667    0.0077 H         1 <0>         0.1340
     27 H3          3.3051    1.9831   -0.0189 H         1 <0>         0.1370
     28 H4         -0.9251   -0.5578    0.0079 H         1 <0>         0.1401
     29 H5          2.1937   -2.6827   -0.0355 H         1 <0>         0.1480
     30 H6         -0.8321   -2.3215   -0.0032 H         1 <0>         0.1575
     31 H7         -0.5502  -10.2240    1.7080 H         1 <0>         0.1779
     32 H8         -1.2885  -11.0746    3.3674 H         1 <0>         0.1345
     33 H9         -2.2084  -12.1028    5.4037 H         1 <0>         0.1521
     34 H10        -3.0527   -8.3854    7.0476 H         1 <0>         0.1526
     35 H11        -2.1513   -7.2267    5.0740 H         1 <0>         0.1461
@<TRIPOS>BOND
     1    1    6 ar
     2    1    2 ar
     3    1   25 1
     4    2    3 ar
     5    2   26 1
     6    3    4 ar
     7    3   27 1
     8    4    5 ar
     9    4   24 1
    10    5    6 ar
    11    5    7 1
    12    6   28 1
    13    7    8 2
    14    7   29 1
    15    8    9 1
    16    8   30 1
    17    9   10 2
    18    9   11 2
    19    9   12 1
    20   12   13 1
    21   13   17 1
    22   13   14 2
    23   14   15 1
    24   15   16 2
    25   15   18 1
    26   16   17 1
    27   16   31 1
    28   18   23 ar
    29   18   19 ar
    30   19   20 ar
    31   19   32 1
    32   20   21 ar
    33   20   33 1
    34   21   22 ar
    35   22   23 ar
    36   22   34 1
    37   23   35 1
@<TRIPOS>MOLECULE
ZINC06476201
   39    41     0     0     0
SMALL
USER_CHARGES
2-nitro-N-tetralin-1-yl-benzenesulfonamide
@<TRIPOS>ATOM
      1 C1          3.0225    8.1864    1.4971 C.ar      1 <0>        -0.1104
      2 C2          4.3355    7.7887    1.6693 C.ar      1 <0>        -0.1243
      3 C3          4.7257    6.5255    1.2761 C.ar      1 <0>        -0.0998
      4 C4          3.8104    5.6489    0.7073 C.ar      1 <0>        -0.0926
      5 C5          2.5023    6.0435    0.5393 C.ar      1 <0>        -0.0629
      6 C6          2.1104    7.3146    0.9400 C.ar      1 <0>        -0.1241
      7 C7          1.4551    5.1443   -0.0638 C.3       1 <0>        -0.0838
      8 C8          2.1095    3.9916   -0.8227 C.3       1 <0>        -0.1186
      9 C9          3.1360    3.3255    0.1013 C.3       1 <0>        -0.1300
     10 C10         4.3062    4.2879    0.2940 C.3       1 <0>         0.1964
     11 H1          4.8575    4.3755   -0.6422 H         1 <0>         0.0987
     12 N1          5.1977    3.7628    1.3312 N.pl3     1 <0>        -1.0851
     13 S1          6.7445    3.3152    0.9446 S.o2      1 <0>         2.6840
     14 O1          7.2576    4.3259    0.0876 O.2       1 <0>        -0.9405
     15 O2          7.3798    2.9554    2.1637 O.2       1 <0>        -0.9412
     16 C11         6.6357    1.8446   -0.0198 C.ar      1 <0>        -0.6388
     17 C12         7.0282    1.8567   -1.3454 C.ar      1 <0>        -0.0149
     18 C13         6.9474    0.7019   -2.1006 C.ar      1 <0>        -0.0921
     19 C14         6.4647   -0.4627   -1.5332 C.ar      1 <0>        -0.0584
     20 C15         6.0670   -0.4734   -0.2095 C.ar      1 <0>        -0.0747
     21 C16         6.1528    0.6804    0.5473 C.ar      1 <0>         0.0545
     22 N2          5.7269    0.6690    1.9649 N.pl3     1 <0>         0.0140
     23 O3          5.9792   -0.2923    2.6689 O.2       1 <0>        -0.1094
     24 O4          5.1240    1.6210    2.4273 O.3       1 <0>        -0.1568
     25 H2          2.7114    9.1749    1.8013 H         1 <0>         0.1234
     26 H3          5.0530    8.4647    2.1106 H         1 <0>         0.1241
     27 H4          5.7514    6.2155    1.4111 H         1 <0>         0.1190
     28 H5          1.0840    7.6245    0.8095 H         1 <0>         0.1226
     29 H6          0.8270    4.7410    0.7305 H         1 <0>         0.0800
     30 H7          0.8379    5.7223   -0.7516 H         1 <0>         0.0779
     31 H8          1.3504    3.2650   -1.1124 H         1 <0>         0.0740
     32 H9          2.6101    4.3747   -1.7119 H         1 <0>         0.0688
     33 H10         2.6760    3.1091    1.0655 H         1 <0>         0.0826
     34 H11         3.4917    2.4001   -0.3517 H         1 <0>         0.0647
     35 H12         4.8819    3.6773    2.2444 H         1 <0>         0.4328
     36 H13         7.4015    2.7675   -1.7898 H         1 <0>         0.1673
     37 H14         7.2579    0.7103   -3.1350 H         1 <0>         0.1564
     38 H15         6.3981   -1.3641   -2.1243 H         1 <0>         0.1585
     39 H16         5.6896   -1.3831    0.2336 H         1 <0>         0.1588
@<TRIPOS>BOND
     1    1    6 ar
     2    1    2 ar
     3    1   25 1
     4    2    3 ar
     5    2   26 1
     6    3    4 ar
     7    3   27 1
     8    4   10 1
     9    4    5 ar
    10    5    6 ar
    11    5    7 1
    12    6   28 1
    13    7    8 1
    14    7   29 1
    15    7   30 1
    16    8    9 1
    17    8   31 1
    18    8   32 1
    19    9   10 1
    20    9   33 1
    21    9   34 1
    22   10   11 1
    23   10   12 1
    24   12   13 1
    25   12   35 1
    26   13   14 2
    27   13   15 2
    28   13   16 1
    29   16   21 ar
    30   16   17 ar
    31   17   18 ar
    32   17   36 1
    33   18   19 ar
    34   18   37 1
    35   19   20 ar
    36   19   38 1
    37   20   21 ar
    38   20   39 1
    39   21   22 1
    40   22   23 2
    41   22   24 1
@<TRIPOS>MOLECULE
ZINC02445553
   47    51     0     0     0
SMALL
USER_CHARGES

@<TRIPOS>ATOM
      1 C1         -0.0187    1.5258    0.0104 C.3       1 <0>        -0.1841
      2 C2          0.0021   -0.0041    0.0020 C.3       1 <0>         0.1110
      3 C3         -1.4307   -0.5372    0.0361 C.3       1 <0>        -0.0933
      4 C4         -2.0435   -0.2699    1.3897 C.ar      1 <0>         0.2125
      5 C5         -1.2508    0.0358    2.4800 C.ar      1 <0>        -0.1969
      6 C6         -1.8462    0.2687    3.7101 C.ar      1 <0>         0.0190
      7 C7         -3.2325    0.1882    3.8001 C.ar      1 <0>        -0.1778
      8 C8         -4.2091    0.3593    4.8867 C.ar      1 <0>         0.1791
      9 C9         -5.4624    0.1385    4.3033 C.ar      1 <0>        -0.0893
     10 C10        -6.5921    0.2382    5.1235 C.ar      1 <0>         0.4819
     11 N1         -6.4255    0.5356    6.4081 N.ar      1 <0>        -0.5499
     12 C11        -5.2237    0.7363    6.9148 C.ar      1 <0>         0.3393
     13 N2         -4.1330    0.6529    6.1819 N.ar      1 <0>        -0.5215
     14 N3         -7.8614    0.0309    4.6055 N.pl3     1 <0>        -0.6985
     15 C12        -9.0346    0.1386    5.4763 C.3       1 <0>         0.1711
     16 C13       -10.2819   -0.1300    4.6743 C.ar      1 <0>        -0.1170
     17 C14       -10.9356    0.9118    4.0433 C.ar      1 <0>        -0.0983
     18 C15       -12.0797    0.6654    3.3076 C.ar      1 <0>        -0.1218
     19 C16       -12.5698   -0.6229    3.2027 C.ar      1 <0>        -0.1083
     20 C17       -11.9156   -1.6648    3.8330 C.ar      1 <0>        -0.1217
     21 C18       -10.7691   -1.4190    4.5651 C.ar      1 <0>        -0.0983
     22 O1         -5.2887   -0.1388    2.9949 O.3       1 <0>        -0.1754
     23 C19        -3.9821   -0.1224    2.6538 C.ar      1 <0>         0.3209
     24 N4         -3.3591   -0.3367    1.5053 N.ar      1 <0>        -0.4811
     25 C20         0.2475    0.1301    2.3709 C.3       1 <0>         0.1097
     26 O2          0.6941   -0.4820    1.1611 O.3       1 <0>        -0.3600
     27 C21         0.7095   -0.5013   -1.2602 C.3       1 <0>        -0.1387
     28 H1          1.0039    1.9031    0.0027 H         1 <0>         0.0719
     29 H2         -0.5459    1.8868   -0.8726 H         1 <0>         0.0732
     30 H3         -0.5289    1.8773    0.9072 H         1 <0>         0.0613
     31 H4         -2.0209   -0.0398   -0.7335 H         1 <0>         0.1041
     32 H5         -1.4224   -1.6108   -0.1522 H         1 <0>         0.1043
     33 H6         -1.2486    0.5066    4.5776 H         1 <0>         0.1536
     34 H7         -5.1318    0.9766    7.9637 H         1 <0>         0.2110
     35 H8         -7.9727   -0.1855    3.6665 H         1 <0>         0.4177
     36 H9         -8.9569   -0.5908    6.2825 H         1 <0>         0.0815
     37 H10        -9.0830    1.1426    5.8981 H         1 <0>         0.0815
     38 H11       -10.5527    1.9183    4.1253 H         1 <0>         0.1243
     39 H12       -12.5908    1.4794    2.8152 H         1 <0>         0.1256
     40 H13       -13.4641   -0.8153    2.6285 H         1 <0>         0.1249
     41 H14       -12.2987   -2.6713    3.7512 H         1 <0>         0.1256
     42 H15       -10.2558   -2.2336    5.0544 H         1 <0>         0.1244
     43 H16         0.5445    1.1788    2.3761 H         1 <0>         0.0755
     44 H17         0.7039   -0.3761    3.2215 H         1 <0>         0.1119
     45 H18         1.7325   -0.1253   -1.2754 H         1 <0>         0.0705
     46 H19         0.7229   -1.5912   -1.2637 H         1 <0>         0.0685
     47 H20         0.1771   -0.1417   -2.1407 H         1 <0>         0.0760
@<TRIPOS>BOND
     1    1    2 1
     2    1   28 1
     3    1   29 1
     4    1   30 1
     5    2   26 1
     6    2    3 1
     7    2   27 1
     8    3    4 1
     9    3   31 1
    10    3   32 1
    11    4   24 ar
    12    4    5 ar
    13    5    6 ar
    14    5   25 1
    15    6    7 ar
    16    6   33 1
    17    7   23 ar
    18    7    8 1
    19    8   13 ar
    20    8    9 ar
    21    9   10 ar
    22    9   22 1
    23   10   11 ar
    24   10   14 1
    25   11   12 ar
    26   12   13 ar
    27   12   34 1
    28   14   15 1
    29   14   35 1
    30   15   16 1
    31   15   36 1
    32   15   37 1
    33   16   21 ar
    34   16   17 ar
    35   17   18 ar
    36   17   38 1
    37   18   19 ar
    38   18   39 1
    39   19   20 ar
    40   19   40 1
    41   20   21 ar
    42   20   41 1
    43   21   42 1
    44   22   23 1
    45   23   24 ar
    46   25   26 1
    47   25   43 1
    48   25   44 1
    49   27   45 1
    50   27   46 1
    51   27   47 1
@<TRIPOS>MOLECULE
ZINC48252363
   47    50     0     0     0
SMALL
USER_CHARGES

@<TRIPOS>ATOM
      1 C1          0.1059    1.6449   -0.1588 C.3       1 <0>        -0.0929
      2 C2          0.0682    0.1387   -0.1264 C.2       1 <0>         0.0161
      3 C3         -0.0402   -0.6849   -1.1952 C.2       1 <0>        -0.1742
      4 C4         -0.0316   -1.9966   -0.6642 C.2       1 <0>        -0.0255
      5 N1          0.0775   -1.8811    0.6443 N.2       1 <0>        -0.2541
      6 N2          0.1420   -0.6410    0.9736 N.pl3     1 <0>        -0.2626
      7 C5          0.2733   -0.1441    2.3455 C.3       1 <0>         0.1661
      8 C6         -1.0051    0.5958    2.7445 C.3       1 <0>        -0.1667
      9 C7          0.4981   -1.3223    3.2953 C.3       1 <0>        -0.1472
     10 C8          1.4639    0.8130    2.4294 C.3       1 <0>        -0.1695
     11 C9         -0.1273   -3.2555   -1.4304 C.2       1 <0>         0.6132
     12 O1         -0.2251   -3.2239   -2.6419 O.2       1 <0>        -0.5108
     13 N3         -0.1062   -4.4395   -0.7867 N.am      1 <0>        -0.6608
     14 C10        -0.2944   -5.6285   -1.5017 C.ar      1 <0>         0.1531
     15 C11         0.2103   -5.7479   -2.7947 C.ar      1 <0>        -0.0916
     16 C12         0.0315   -6.9131   -3.5085 C.ar      1 <0>        -0.0713
     17 C13        -0.6542   -7.9760   -2.9393 C.ar      1 <0>        -0.0041
     18 C14        -1.1650   -7.8634   -1.6374 C.ar      1 <0>         0.0432
     19 C15        -0.9756   -6.6819   -0.9193 C.ar      1 <0>        -0.0909
     20 N4         -1.7766   -9.0463   -1.3578 N.2       1 <0>        -0.4765
     21 C16        -1.6619   -9.8306   -2.3871 C.2       1 <0>         0.2841
     22 O2         -0.9852   -9.2145   -3.3688 O.3       1 <0>        -0.2114
     23 C17        -2.2106  -11.2319   -2.4675 C.3       1 <0>        -0.0842
     24 C18        -1.8086  -12.0798   -3.6759 C.3       1 <0>        -0.1591
     25 C19        -3.2317  -11.5287   -3.5676 C.3       1 <0>        -0.1536
     26 H1          1.1424    1.9823   -0.1660 H         1 <0>         0.0807
     27 H2         -0.3986    2.0018   -1.0566 H         1 <0>         0.0871
     28 H3         -0.3987    2.0400    0.7229 H         1 <0>         0.0767
     29 H4         -0.1170   -0.4008   -2.2343 H         1 <0>         0.1628
     30 H5         -1.8380   -0.1067    2.7720 H         1 <0>         0.0687
     31 H6         -0.8738    1.0425    3.7300 H         1 <0>         0.0857
     32 H7         -1.2141    1.3789    2.0156 H         1 <0>         0.0717
     33 H8          1.4088   -1.8495    3.0111 H         1 <0>         0.0695
     34 H9          0.5958   -0.9526    4.3160 H         1 <0>         0.0784
     35 H10        -0.3501   -2.0042    3.2355 H         1 <0>         0.0727
     36 H11         1.3038    1.6524    1.7528 H         1 <0>         0.0759
     37 H12         1.5617    1.1827    3.4502 H         1 <0>         0.0860
     38 H13         2.3747    0.2859    2.1452 H         1 <0>         0.0680
     39 H14         0.0394   -4.4678    0.1719 H         1 <0>         0.4196
     40 H15         0.7447   -4.9220   -3.2406 H         1 <0>         0.1584
     41 H16         0.4248   -6.9985   -4.5107 H         1 <0>         0.1418
     42 H17        -1.3626   -6.5890    0.0847 H         1 <0>         0.1406
     43 H18        -2.3362  -11.7430   -1.5130 H         1 <0>         0.1510
     44 H19        -1.1472  -11.6241   -4.4128 H         1 <0>         0.1058
     45 H20        -1.6694  -13.1491   -3.5166 H         1 <0>         0.1134
     46 H21        -4.0289  -12.2354   -3.3369 H         1 <0>         0.1145
     47 H22        -3.5066  -10.7104   -4.2331 H         1 <0>         0.1019
@<TRIPOS>BOND
     1    1    2 1
     2    1   26 1
     3    1   27 1
     4    1   28 1
     5    2    6 1
     6    2    3 2
     7    3    4 1
     8    3   29 1
     9    4    5 2
    10    4   11 1
    11    5    6 1
    12    6    7 1
    13    7    8 1
    14    7    9 1
    15    7   10 1
    16    8   30 1
    17    8   31 1
    18    8   32 1
    19    9   33 1
    20    9   34 1
    21    9   35 1
    22   10   36 1
    23   10   37 1
    24   10   38 1
    25   11   12 2
    26   11   13 am
    27   13   14 1
    28   13   39 1
    29   14   19 ar
    30   14   15 ar
    31   15   16 ar
    32   15   40 1
    33   16   17 ar
    34   16   41 1
    35   17   22 1
    36   17   18 ar
    37   18   19 ar
    38   18   20 1
    39   19   42 1
    40   20   21 2
    41   21   22 1
    42   21   23 1
    43   23   25 1
    44   23   24 1
    45   23   43 1
    46   24   25 1
    47   24   44 1
    48   24   45 1
    49   25   46 1
    50   25   47 1
@<TRIPOS>MOLECULE
ZINC01792280
   38    41     0     0     0
SMALL
USER_CHARGES

@<TRIPOS>ATOM
      1 C1         -0.0173    1.4248    0.0099 C.3       1 <0>         0.0266
      2 O1          0.0021   -0.0041    0.0020 O.3       1 <0>        -0.3166
      3 C2         -1.2003   -0.6375    0.0101 C.ar      1 <0>         0.1213
      4 C3         -2.3748    0.1028    0.0196 C.ar      1 <0>        -0.2000
      5 C4         -3.5997   -0.5372    0.0282 C.ar      1 <0>        -0.0818
      6 C5         -3.6622   -1.9164    0.0276 C.ar      1 <0>        -0.1385
      7 C6         -2.4881   -2.6668    0.0177 C.ar      1 <0>        -0.0042
      8 C7         -1.2539   -2.0214    0.0032 C.ar      1 <0>        -0.1127
      9 C8         -2.5526   -4.1495    0.0169 C.2       1 <0>         0.1980
     10 C9         -3.7556   -4.7548    0.0204 C.2       1 <0>        -0.2603
     11 C10        -3.7756   -6.2722    0.0195 C.3       1 <0>         0.2702
     12 H1         -4.3224   -6.6036    0.9023 H         1 <0>         0.1001
     13 N1         -2.4686   -6.9424    0.0149 N.pl3     1 <0>        -0.4742
     14 C11        -1.3389   -6.1729    0.0117 C.2       1 <0>         0.5658
     15 N2         -1.3978   -4.8624    0.0072 N.2       1 <0>        -0.5811
     16 N3         -0.2937   -7.0557    0.0082 N.pl3     1 <0>        -0.5268
     17 N4         -0.8380   -8.3463    0.0094 N.2       1 <0>         0.0332
     18 N5         -2.0733   -8.2799    0.0132 N.2       1 <0>         0.0492
     19 C12        -4.5386   -6.7288   -1.1972 C.ar      1 <0>        -0.1047
     20 C13        -3.9171   -6.7583   -2.4317 C.ar      1 <0>        -0.0821
     21 C14        -4.6163   -7.1770   -3.5479 C.ar      1 <0>        -0.1068
     22 C15        -5.9385   -7.5667   -3.4297 C.ar      1 <0>        -0.0265
     23 C16        -6.5600   -7.5370   -2.1940 C.ar      1 <0>        -0.1066
     24 C17        -5.8581   -7.1235   -1.0775 C.ar      1 <0>        -0.0857
     25 Cl1        -6.8176   -8.0922   -4.8314 Cl        1 <0>        -0.0641
     26 H2          1.0053    1.8021    0.0021 H         1 <0>         0.1010
     27 H3         -0.5445    1.7859   -0.8732 H         1 <0>         0.0558
     28 H4         -0.5275    1.7763    0.9067 H         1 <0>         0.0560
     29 H5         -2.3310    1.1820    0.0205 H         1 <0>         0.1291
     30 H6         -4.5105    0.0432    0.0359 H         1 <0>         0.1295
     31 H7         -4.6209   -2.4136    0.0351 H         1 <0>         0.1292
     32 H8         -0.3412   -2.5986   -0.0086 H         1 <0>         0.1427
     33 H9         -4.6713   -4.1821    0.0241 H         1 <0>         0.1633
     34 H10         0.6496   -6.8297    0.0051 H         1 <0>         0.4707
     35 H11        -2.8850   -6.4537   -2.5239 H         1 <0>         0.1184
     36 H12        -4.1307   -7.1996   -4.5124 H         1 <0>         0.1350
     37 H13        -7.5922   -7.8408   -2.1011 H         1 <0>         0.1390
     38 H14        -6.3417   -7.1048   -0.1120 H         1 <0>         0.1382
@<TRIPOS>BOND
     1    1    2 1
     2    1   26 1
     3    1   27 1
     4    1   28 1
     5    2    3 1
     6    3    8 ar
     7    3    4 ar
     8    4    5 ar
     9    4   29 1
    10    5    6 ar
    11    5   30 1
    12    6    7 ar
    13    6   31 1
    14    7    8 ar
    15    7    9 1
    16    8   32 1
    17    9   15 1
    18    9   10 2
    19   10   11 1
    20   10   33 1
    21   11   12 1
    22   11   13 1
    23   11   19 1
    24   13   18 1
    25   13   14 1
    26   14   15 2
    27   14   16 1
    28   16   17 1
    29   16   34 1
    30   17   18 2
    31   19   24 ar
    32   19   20 ar
    33   20   21 ar
    34   20   35 1
    35   21   22 ar
    36   21   36 1
    37   22   23 ar
    38   22   25 1
    39   23   24 ar
    40   23   37 1
    41   24   38 1
@<TRIPOS>MOLECULE
ZINC66803598
   39    42     0     0     0
SMALL
USER_CHARGES

@<TRIPOS>ATOM
      1 C1          0.0636    1.1352   -0.3789 C.ar      1 <0>        -0.0510
      2 C2          1.1966    1.9178   -0.3288 C.ar      1 <0>        -0.1159
      3 C3          2.4335    1.3371   -0.0713 C.ar      1 <0>         0.1586
      4 C4          2.5311   -0.0342    0.1368 C.ar      1 <0>        -0.1369
      5 C5          1.4016   -0.8220    0.0880 C.ar      1 <0>        -0.0916
      6 C6          0.1584   -0.2419   -0.1704 C.ar      1 <0>        -0.0286
      7 C7         -1.0555   -1.0844   -0.2230 C.2       1 <0>         0.2218
      8 N1         -2.2172   -0.7581   -0.7538 N.2       1 <0>        -0.2805
      9 N2         -3.0474   -1.7346   -0.6209 N.2       1 <0>        -0.2865
     10 C8         -2.4713   -2.7243   -0.0077 C.2       1 <0>         0.1841
     11 N3         -1.1881   -2.3484    0.2618 N.pl3     1 <0>        -0.4716
     12 C9         -0.1992   -3.1814    0.9442 C.3       1 <0>         0.0983
     13 C10        -0.9292   -4.3239    1.6603 C.3       1 <0>        -0.1378
     14 C11        -1.8846   -5.0154    0.6837 C.3       1 <0>        -0.1272
     15 C12        -3.0504   -4.0670    0.3620 C.3       1 <0>        -0.0354
     16 N4          3.5802    2.1328   -0.0221 N.am      1 <0>        -0.6631
     17 C13         3.5057    3.3938    0.4478 C.2       1 <0>         0.6091
     18 O1          2.4613    3.8082    0.9161 O.2       1 <0>        -0.4876
     19 C14         4.6816    4.2657    0.3950 C.2       1 <0>        -0.0714
     20 C15         4.7445    5.5564    0.8392 C.2       1 <0>        -0.0966
     21 C16         6.0506    6.0046    0.5941 C.2       1 <0>        -0.1839
     22 C17         6.7218    4.9802    0.0174 C.2       1 <0>         0.0578
     23 O2          5.8942    3.9329   -0.0956 O.3       1 <0>        -0.1574
     24 Cl1         8.3828    5.0156   -0.4863 Cl        1 <0>         0.0440
     25 H1         -0.8974    1.5873   -0.5750 H         1 <0>         0.1435
     26 H2          1.1239    2.9832   -0.4901 H         1 <0>         0.1444
     27 H3          3.4932   -0.4824    0.3367 H         1 <0>         0.1352
     28 H4          1.4782   -1.8871    0.2490 H         1 <0>         0.1306
     29 H5          0.4978   -3.5934    0.2145 H         1 <0>         0.0926
     30 H6          0.3441   -2.5806    1.6735 H         1 <0>         0.0993
     31 H7         -0.2004   -5.0463    2.0278 H         1 <0>         0.0956
     32 H8         -1.4965   -3.9222    2.4999 H         1 <0>         0.0792
     33 H9         -1.3497   -5.2661   -0.2323 H         1 <0>         0.0732
     34 H10        -2.2737   -5.9261    1.1389 H         1 <0>         0.0888
     35 H11        -3.7016   -3.9607    1.2296 H         1 <0>         0.0984
     36 H12        -3.6180   -4.4670   -0.4782 H         1 <0>         0.1022
     37 H13         4.4302    1.7779   -0.3260 H         1 <0>         0.4187
     38 H14         3.9433    6.1220    1.2915 H         1 <0>         0.1747
     39 H15         6.4465    6.9831    0.8226 H         1 <0>         0.1728
@<TRIPOS>BOND
     1    1    6 ar
     2    1    2 ar
     3    1   25 1
     4    2    3 ar
     5    2   26 1
     6    3    4 ar
     7    3   16 1
     8    4    5 ar
     9    4   27 1
    10    5    6 ar
    11    5   28 1
    12    6    7 1
    13    7   11 1
    14    7    8 2
    15    8    9 1
    16    9   10 2
    17   10   15 1
    18   10   11 1
    19   11   12 1
    20   12   13 1
    21   12   29 1
    22   12   30 1
    23   13   14 1
    24   13   31 1
    25   13   32 1
    26   14   15 1
    27   14   33 1
    28   14   34 1
    29   15   35 1
    30   15   36 1
    31   16   17 am
    32   16   37 1
    33   17   18 2
    34   17   19 1
    35   19   23 1
    36   19   20 2
    37   20   21 1
    38   20   38 1
    39   21   22 2
    40   21   39 1
    41   22   23 1
    42   22   24 1
@<TRIPOS>MOLECULE
ZINC13061322
   50    53     0     0     0
SMALL
USER_CHARGES
3-[[(7S)-3-allyl-7-methyl-4-oxo-5,6,7,8-tetrahydrobenzothiopheno[2,3-d]pyrimidin-2-yl]sulfanylmethyl]benzoic acid
@<TRIPOS>ATOM
      1 C1         -3.6698   -1.5474   -8.8571 C.3       1 <0>        -0.1460
      2 C2         -2.9312   -1.5549   -7.5173 C.3       1 <0>        -0.0876
      3 H1         -1.9734   -1.0452   -7.6222 H         1 <0>         0.0767
      4 C3         -3.7790   -0.8425   -6.4593 C.3       1 <0>        -0.1161
      5 C4         -2.9533   -0.6273   -5.1905 C.3       1 <0>        -0.0584
      6 C5         -2.3504   -1.9625   -4.7626 C.2       1 <0>        -0.0412
      7 C6         -2.2592   -2.9879   -5.6334 C.2       1 <0>        -0.1801
      8 S1         -1.5113   -4.3068   -4.7151 S.3       1 <0>         0.1356
      9 C7         -1.3215   -3.4740   -3.1591 C.2       1 <0>         0.1300
     10 C8         -1.8487   -2.1954   -3.4069 C.2       1 <0>        -0.2631
     11 C9         -1.8319   -1.2890   -2.2998 C.2       1 <0>         0.5614
     12 O1         -2.2734   -0.1590   -2.4195 O.2       1 <0>        -0.5217
     13 N1         -1.3176   -1.6997   -1.1260 N.am      1 <0>        -0.5089
     14 C10        -0.8240   -2.9628   -0.9722 C.2       1 <0>         0.3745
     15 N2         -0.8326   -3.8191   -1.9739 N.2       1 <0>        -0.5020
     16 S2         -0.1668   -3.4554    0.5867 S.3       1 <0>         0.0337
     17 C11         0.3145   -5.1571    0.2013 C.3       1 <0>        -0.0543
     18 C12         0.9196   -5.7972    1.4241 C.ar      1 <0>        -0.1161
     19 C13         0.1112   -6.4737    2.3208 C.ar      1 <0>        -0.1017
     20 C14         0.6583   -7.0642    3.4459 C.ar      1 <0>        -0.1397
     21 C15         2.0154   -6.9829    3.6807 C.ar      1 <0>        -0.0635
     22 C16         2.8368   -6.3024    2.7800 C.ar      1 <0>        -0.1133
     23 C17         2.2785   -5.7123    1.6441 C.ar      1 <0>        -0.0610
     24 C18         4.2907   -6.2107    3.0252 C.2       1 <0>         0.4883
     25 O2          5.0029   -5.6180    2.2397 O.co2     1 <0>        -0.6287
     26 C19        -1.2926   -0.7753    0.0102 C.3       1 <0>         0.1155
     27 C20         0.0021   -0.0041    0.0020 C.2       1 <0>        -0.1857
     28 C21        -0.0157    1.3058    0.0092 C.2       1 <0>        -0.1488
     29 C22        -2.6969   -3.0037   -7.0663 C.3       1 <0>        -0.0282
     30 H2         -4.6296   -2.0517   -8.7457 H         1 <0>         0.0566
     31 H3         -3.8349   -0.5180   -9.1752 H         1 <0>         0.0580
     32 H4         -3.0709   -2.0671   -9.6050 H         1 <0>         0.0570
     33 H5         -4.1058    0.1225   -6.8467 H         1 <0>         0.0697
     34 H6         -4.6518   -1.4516   -6.2243 H         1 <0>         0.0651
     35 H7         -3.5957   -0.2456   -4.3969 H         1 <0>         0.0855
     36 H8         -2.1544    0.0865   -5.3914 H         1 <0>         0.0771
     37 H9         -0.5648   -5.7225   -0.1073 H         1 <0>         0.1084
     38 H10         1.0462   -5.1537   -0.6066 H         1 <0>         0.1104
     39 H11        -0.9517   -6.5407    2.1416 H         1 <0>         0.1182
     40 H12         0.0217   -7.5904    4.1418 H         1 <0>         0.1208
     41 H13         2.4414   -7.4449    4.5591 H         1 <0>         0.1333
     42 H14         2.9088   -5.1876    0.9414 H         1 <0>         0.1301
     43 H15        -1.3737   -1.3393    0.9394 H         1 <0>         0.1078
     44 H16        -2.1295   -0.0812   -0.0676 H         1 <0>         0.1107
     45 H17         0.9446   -0.5313   -0.0098 H         1 <0>         0.1209
     46 H18         0.9122    1.8585    0.0033 H         1 <0>         0.1063
     47 H19        -0.9582    1.8330    0.0166 H         1 <0>         0.1016
     48 H20        -1.9213   -3.4590   -7.6821 H         1 <0>         0.0818
     49 H21        -3.6219   -3.5724   -7.1613 H         1 <0>         0.0835
     50 O3          4.8267   -6.7846    4.1197 O.co2     1 <0>        -0.7521
@<TRIPOS>BOND
     1    1    2 1
     2    1   30 1
     3    1   31 1
     4    1   32 1
     5    2    3 1
     6    2   29 1
     7    2    4 1
     8    4    5 1
     9    4   33 1
    10    4   34 1
    11    5    6 1
    12    5   35 1
    13    5   36 1
    14    6   10 1
    15    6    7 2
    16    7    8 1
    17    7   29 1
    18    8    9 1
    19    9   15 1
    20    9   10 2
    21   10   11 1
    22   11   12 2
    23   11   13 am
    24   13   14 1
    25   13   26 1
    26   14   15 2
    27   14   16 1
    28   16   17 1
    29   17   18 1
    30   17   37 1
    31   17   38 1
    32   18   23 ar
    33   18   19 ar
    34   19   20 ar
    35   19   39 1
    36   20   21 ar
    37   20   40 1
    38   21   22 ar
    39   21   41 1
    40   22   23 ar
    41   22   24 1
    42   23   42 1
    43   24   25 2
    44   24   50 1
    45   26   27 1
    46   26   43 1
    47   26   44 1
    48   27   28 2
    49   27   45 1
    50   28   46 1
    51   28   47 1
    52   29   48 1
    53   29   49 1
@<TRIPOS>MOLECULE
ZINC32919392
   41    43     0     0     0
SMALL
USER_CHARGES
4-[3,5-bis(trifluoromethyl)phenyl]-5-[(2-methylphenoxy)methyl]-1,2,4-triazole-3-thiol
@<TRIPOS>ATOM
      1 C1          2.5001    6.1026   -0.7504 C.3       1 <0>        -0.1063
      2 C2          3.3173    5.7194    0.4564 C.ar      1 <0>        -0.1135
      3 C3          4.6736    5.4889    0.3283 C.ar      1 <0>        -0.0837
      4 C4          5.4238    5.1377    1.4351 C.ar      1 <0>        -0.1579
      5 C5          4.8194    5.0168    2.6730 C.ar      1 <0>        -0.0859
      6 C6          3.4649    5.2514    2.8073 C.ar      1 <0>        -0.2062
      7 C7          2.7086    5.5983    1.6969 C.ar      1 <0>         0.1346
      8 O1          1.3748    5.8246    1.8255 O.3       1 <0>        -0.3049
      9 C8          0.8156    5.6815    3.1328 C.3       1 <0>         0.1620
     10 C9         -0.6628    5.9691    3.0810 C.2       1 <0>         0.1138
     11 N1         -1.2300    7.1306    3.2462 N.2       1 <0>        -0.2521
     12 N2         -2.5058    7.0196    3.1381 N.2       1 <0>        -0.3332
     13 C10        -2.8267    5.7708    2.8907 C.2       1 <0>         0.3869
     14 N3         -1.6597    5.0582    2.8515 N.pl3     1 <0>        -0.4567
     15 C11        -1.5139    3.6828    2.6187 C.ar      1 <0>         0.1573
     16 C12        -2.0191    2.7658    3.5302 C.ar      1 <0>        -0.0031
     17 C13        -1.8740    1.4119    3.2983 C.ar      1 <0>        -0.1775
     18 C14        -1.2266    0.9697    2.1593 C.ar      1 <0>        -0.0248
     19 C15        -0.7223    1.8808    1.2496 C.ar      1 <0>        -0.1797
     20 C16        -0.8594    3.2359    1.4790 C.ar      1 <0>        -0.0258
     21 C17        -0.0169    1.3948    0.0097 C.3       1 <0>         0.5160
     22 F1          0.0021   -0.0041    0.0020 F         1 <0>        -0.1742
     23 F2          1.2956    1.8790   -0.0002 F         1 <0>        -0.1705
     24 F3         -0.6935    1.8582   -1.1237 F         1 <0>        -0.1699
     25 C18        -2.4222    0.4158    4.2874 C.3       1 <0>         0.5163
     26 F4         -2.1556   -0.8821    3.8384 F         1 <0>        -0.1751
     27 F5         -1.8152    0.6125    5.5324 F         1 <0>        -0.1736
     28 F6         -3.8046    0.5923    4.4094 F         1 <0>        -0.1647
     29 S1         -4.4526    5.1330    2.6569 S.3       1 <0>        -0.7730
     30 H1          3.1520    6.1480   -1.6352 H         1 <0>         0.0628
     31 H2          2.0393    7.0873   -0.5835 H         1 <0>         0.0709
     32 H3          1.7126    5.3520   -0.9132 H         1 <0>         0.0676
     33 H4          5.1480    5.5834   -0.6373 H         1 <0>         0.1264
     34 H5          6.4839    4.9579    1.3329 H         1 <0>         0.1209
     35 H6          5.4077    4.7427    3.5362 H         1 <0>         0.1224
     36 H7          2.9941    5.1612    3.7752 H         1 <0>         0.1277
     37 H8          0.9769    4.6537    3.4902 H         1 <0>         0.0730
     38 H9          1.3029    6.3892    3.8196 H         1 <0>         0.0960
     39 H10        -2.5248    3.1107    4.4200 H         1 <0>         0.1512
     40 H11        -1.1143   -0.0894    1.9801 H         1 <0>         0.1577
     41 H12        -0.4617    3.9471    0.7701 H         1 <0>         0.1488
@<TRIPOS>BOND
     1    1    2 1
     2    1   30 1
     3    1   31 1
     4    1   32 1
     5    2    7 ar
     6    2    3 ar
     7    3    4 ar
     8    3   33 1
     9    4    5 ar
    10    4   34 1
    11    5    6 ar
    12    5   35 1
    13    6    7 ar
    14    6   36 1
    15    7    8 1
    16    8    9 1
    17    9   37 1
    18    9   38 1
    19    9   10 1
    20   10   14 1
    21   10   11 2
    22   11   12 1
    23   12   13 2
    24   13   29 1
    25   13   14 1
    26   14   15 1
    27   15   20 ar
    28   15   16 ar
    29   16   17 ar
    30   16   39 1
    31   17   18 ar
    32   17   25 1
    33   18   19 ar
    34   18   40 1
    35   19   20 ar
    36   19   21 1
    37   20   41 1
    38   21   22 1
    39   21   23 1
    40   21   24 1
    41   25   26 1
    42   25   27 1
    43   25   28 1
@<TRIPOS>MOLECULE
ZINC38700097
   50    53     0     0     0
SMALL
USER_CHARGES

@<TRIPOS>ATOM
      1 C1          2.1497    0.7321    0.8884 C.3       1 <0>        -0.1166
      2 C2          1.3620   -0.5117    0.5664 C.ar      1 <0>        -0.1009
      3 C3          1.4182   -1.0560   -0.7031 C.ar      1 <0>        -0.0098
      4 C4          0.6961   -2.1966   -0.9990 C.ar      1 <0>        -0.6054
      5 C5         -0.0834   -2.7946   -0.0246 C.ar      1 <0>         0.0635
      6 C6         -0.1398   -2.2507    1.2458 C.ar      1 <0>        -0.1270
      7 C7          0.5872   -1.1116    1.5429 C.ar      1 <0>         0.0083
      8 Cl1         0.5219   -0.4317    3.1388 Cl        1 <0>        -0.0598
      9 Cl2        -0.9909   -4.2270   -0.3967 Cl        1 <0>        -0.0187
     10 S1          0.7675   -2.8890   -2.6177 S.o2      1 <0>         2.5949
     11 O1         -0.5756   -3.1204   -3.0201 O.2       1 <0>        -1.0099
     12 O2          1.6583   -2.0754   -3.3686 O.2       1 <0>        -1.0278
     13 N1          1.4841   -4.3759   -2.4830 N.2       1 <0>        -1.0776
     14 C8          1.6759   -5.1656   -3.6217 C.ar      1 <0>         0.2739
     15 C9          1.2705   -4.7002   -4.8661 C.ar      1 <0>        -0.2464
     16 C10         1.4601   -5.4826   -5.9865 C.ar      1 <0>        -0.0827
     17 C11         2.0566   -6.7334   -5.8717 C.ar      1 <0>         0.0349
     18 C12         2.4650   -7.1989   -4.6319 C.ar      1 <0>        -0.0673
     19 C13         2.2761   -6.4112   -3.5089 C.ar      1 <0>        -0.1667
     20 C14         3.1236   -8.5441   -4.4743 C.3       1 <0>        -0.0732
     21 C15         2.7995   -9.4426   -5.6674 C.3       1 <0>        -0.1328
     22 C16         3.1195   -8.6835   -6.9617 C.3       1 <0>         0.0970
     23 N2          2.2344   -7.5125   -7.0256 N.am      1 <0>        -0.5298
     24 C17         1.6037   -7.1920   -8.1727 C.2       1 <0>         0.5432
     25 O3          0.7791   -6.2988   -8.1840 O.2       1 <0>        -0.5193
     26 C18         1.9144   -7.9267   -9.4172 C.ar      1 <0>        -0.1204
     27 C19         3.2105   -8.3877   -9.6540 C.ar      1 <0>        -0.0943
     28 C20         3.4937   -9.0731  -10.8173 C.ar      1 <0>        -0.1284
     29 C21         2.4965   -9.3038  -11.7482 C.ar      1 <0>        -0.1027
     30 C22         1.2098   -8.8491  -11.5199 C.ar      1 <0>        -0.1273
     31 C23         0.9118   -8.1674  -10.3581 C.ar      1 <0>        -0.0658
     32 H1          3.1408    0.4521    1.2454 H         1 <0>         0.0782
     33 H2          2.2460    1.3435   -0.0088 H         1 <0>         0.0750
     34 H3          1.6321    1.3001    1.6613 H         1 <0>         0.0737
     35 H4          2.0264   -0.5896   -1.4639 H         1 <0>         0.1558
     36 H5         -0.7480   -2.7171    2.0067 H         1 <0>         0.1470
     37 H6          0.8077   -3.7285   -4.9563 H         1 <0>         0.0993
     38 H7          1.1444   -5.1230   -6.9547 H         1 <0>         0.1479
     39 H8          2.5940   -6.7694   -2.5409 H         1 <0>         0.1160
     40 H9          4.2033   -8.4102   -4.4077 H         1 <0>         0.0706
     41 H10         2.7632   -9.0161   -3.5602 H         1 <0>         0.0748
     42 H11         3.4032  -10.3487   -5.6168 H         1 <0>         0.0769
     43 H12         1.7417   -9.7050   -5.6501 H         1 <0>         0.0701
     44 H13         4.1602   -8.3596   -6.9521 H         1 <0>         0.0728
     45 H14         2.9409   -9.3287   -7.8219 H         1 <0>         0.0915
     46 H15         3.9899   -8.2080   -8.9283 H         1 <0>         0.1340
     47 H16         4.4962   -9.4301  -11.0019 H         1 <0>         0.1272
     48 H17         2.7235   -9.8409  -12.6573 H         1 <0>         0.1241
     49 H18         0.4360   -9.0322  -12.2507 H         1 <0>         0.1274
     50 H19        -0.0940   -7.8173  -10.1788 H         1 <0>         0.1325
@<TRIPOS>BOND
     1    1    2 1
     2    1   32 1
     3    1   33 1
     4    1   34 1
     5    2    7 ar
     6    2    3 ar
     7    3    4 ar
     8    3   35 1
     9    4    5 ar
    10    4   10 1
    11    5    6 ar
    12    5    9 1
    13    6    7 ar
    14    6   36 1
    15    7    8 1
    16   10   11 2
    17   10   12 2
    18   10   13 1
    19   13   14 1
    20   14   19 ar
    21   14   15 ar
    22   15   16 ar
    23   15   37 1
    24   16   17 ar
    25   16   38 1
    26   17   23 1
    27   17   18 ar
    28   18   19 ar
    29   18   20 1
    30   19   39 1
    31   20   21 1
    32   20   40 1
    33   20   41 1
    34   21   22 1
    35   21   42 1
    36   21   43 1
    37   22   23 1
    38   22   44 1
    39   22   45 1
    40   23   24 am
    41   24   25 2
    42   24   26 1
    43   26   31 ar
    44   26   27 ar
    45   27   28 ar
    46   27   46 1
    47   28   29 ar
    48   28   47 1
    49   29   30 ar
    50   29   48 1
    51   30   31 ar
    52   30   49 1
    53   31   50 1
@<TRIPOS>MOLECULE
ZINC39997647
   46    48     0     0     0
SMALL
USER_CHARGES

@<TRIPOS>ATOM
      1 C1          0.8397   -0.7116   -0.8200 C.3       1 <0>        -0.1487
      2 C2         -0.0703    0.1852    0.0217 C.3       1 <0>        -0.0933
      3 C3         -1.4670   -0.3808    0.0278 C.ar      1 <0>        -0.0457
      4 C4         -2.3693    0.0029   -0.9497 C.ar      1 <0>        -0.1204
      5 C5         -3.6485   -0.5101   -0.9520 C.ar      1 <0>        -0.0799
      6 C6         -4.0346   -1.4222    0.0385 C.ar      1 <0>        -0.1225
      7 C7         -3.1152   -1.8048    1.0235 C.ar      1 <0>        -0.0673
      8 C8         -1.8384   -1.2858    1.0075 C.ar      1 <0>        -0.1257
      9 C9         -5.3943   -1.9732    0.0444 C.2       1 <0>         0.0903
     10 C10        -6.0822   -2.1204   -1.1382 C.2       1 <0>        -0.0552
     11 C11        -5.4229   -1.8745   -2.3854 C.1       1 <0>         0.2628
     12 N1         -4.8999   -1.6795   -3.3748 N.1       1 <0>        -0.3855
     13 C12        -7.4939   -2.5299   -1.1213 C.2       1 <0>         0.4821
     14 N2         -8.1509   -2.6705   -2.2506 N.2       1 <0>        -0.4849
     15 C13        -9.4806   -2.9469   -2.2329 C.2       1 <0>         0.2298
     16 N3        -10.5254   -2.1265   -2.3099 N.2       1 <0>        -0.2692
     17 N4        -11.7109   -2.5560   -2.2785 N.2       1 <0>        -0.2707
     18 C14       -11.9862   -3.8495   -2.1671 C.2       1 <0>         0.0257
     19 S1        -10.3270   -4.5196   -2.1074 S.3       1 <0>         0.0054
     20 S2        -13.5423   -4.6737   -2.1031 S.3       1 <0>         0.0686
     21 C15       -14.7555   -3.3308   -2.2273 C.3       1 <0>        -0.0735
     22 C16       -16.1477   -3.9061   -2.1843 C.ar      1 <0>        -0.1213
     23 C17       -16.7778   -4.2799   -3.3564 C.ar      1 <0>        -0.0691
     24 C18       -18.0548   -4.8076   -3.3172 C.ar      1 <0>        -0.1286
     25 C19       -18.7032   -4.9622   -2.1059 C.ar      1 <0>        -0.0773
     26 C20       -18.0751   -4.5897   -0.9329 C.ar      1 <0>        -0.1536
     27 C21       -16.7938   -4.0658   -0.9704 C.ar      1 <0>         0.1202
     28 F1        -16.1769   -3.7056    0.1763 F         1 <0>        -0.1306
     29 O1         -8.1170   -2.7623    0.0574 O.3       1 <0>        -0.4846
     30 H1          1.8499   -0.3022   -0.8244 H         1 <0>         0.0623
     31 H2          0.8561   -1.7147   -0.3939 H         1 <0>         0.0574
     32 H3          0.4615   -0.7568   -1.8413 H         1 <0>         0.0573
     33 H4          0.3079    0.2305    1.0429 H         1 <0>         0.0775
     34 H5         -0.0867    1.1884   -0.4045 H         1 <0>         0.0768
     35 H6         -2.0700    0.7066   -1.7124 H         1 <0>         0.1301
     36 H7         -4.3512   -0.2094   -1.7150 H         1 <0>         0.1299
     37 H8         -3.4047   -2.5072    1.7911 H         1 <0>         0.1368
     38 H9         -1.1269   -1.5830    1.7636 H         1 <0>         0.1322
     39 H10        -5.8553   -2.2634    0.9770 H         1 <0>         0.1694
     40 H11       -14.6213   -2.6416   -1.3936 H         1 <0>         0.1124
     41 H12       -14.6118   -2.7970   -3.1667 H         1 <0>         0.1151
     42 H13       -16.2724   -4.1592   -4.3031 H         1 <0>         0.1385
     43 H14       -18.5465   -5.0990   -4.2336 H         1 <0>         0.1359
     44 H15       -19.7012   -5.3740   -2.0766 H         1 <0>         0.1377
     45 H16       -18.5820   -4.7103    0.0131 H         1 <0>         0.1410
     46 H17        -9.0619   -2.9493   -0.0274 H         1 <0>         0.4125
@<TRIPOS>BOND
     1    1    2 1
     2    1   30 1
     3    1   31 1
     4    1   32 1
     5    2    3 1
     6    2   33 1
     7    2   34 1
     8    3    8 ar
     9    3    4 ar
    10    4    5 ar
    11    4   35 1
    12    5    6 ar
    13    5   36 1
    14    6    7 ar
    15    6    9 1
    16    7    8 ar
    17    7   37 1
    18    8   38 1
    19    9   10 2
    20    9   39 1
    21   10   11 1
    22   10   13 1
    23   11   12 3
    24   13   14 2
    25   13   29 1
    26   14   15 1
    27   15   19 1
    28   15   16 2
    29   16   17 1
    30   17   18 2
    31   18   19 1
    32   18   20 1
    33   20   21 1
    34   21   22 1
    35   21   40 1
    36   21   41 1
    37   22   27 ar
    38   22   23 ar
    39   23   24 ar
    40   23   42 1
    41   24   25 ar
    42   24   43 1
    43   25   26 ar
    44   25   44 1
    45   26   27 ar
    46   26   45 1
    47   27   28 1
    48   29   46 1
@<TRIPOS>MOLECULE
ZINC09370832
   50    53     0     0     0
SMALL
USER_CHARGES

@<TRIPOS>ATOM
      1 C1         -0.0184    1.5028    0.0103 C.3       1 <0>        -0.1111
      2 C2          0.0021   -0.0041    0.0020 C.ar      1 <0>        -0.0630
      3 C3          0.0058   -0.6883   -1.2000 C.ar      1 <0>        -0.1557
      4 C4          0.0250   -2.0708   -1.2122 C.ar      1 <0>        -0.0892
      5 C5          0.0405   -2.7733   -0.0231 C.ar      1 <0>        -0.1596
      6 C6          0.0368   -2.0893    1.1858 C.ar      1 <0>         0.1880
      7 C7          0.0228   -0.7000    1.1944 C.ar      1 <0>        -0.1626
      8 N1          0.0520   -2.7970    2.3910 N.am      1 <0>        -0.5418
      9 C8          0.0782   -4.2569    2.5218 C.3       1 <0>         0.2578
     10 H1          0.9777   -4.6576    2.0544 H         1 <0>         0.0826
     11 C9          0.0867   -4.5571    4.0029 C.2       1 <0>        -0.4900
     12 C10         0.1102   -5.8096    4.5990 C.2       1 <0>         0.3842
     13 C11         0.1152   -5.9217    6.0078 C.2       1 <0>        -0.1520
     14 C12         0.1382   -7.1441    6.5896 C.2       1 <0>        -0.0809
     15 C13         0.1434   -7.2607    8.0549 C.ar      1 <0>        -0.0509
     16 C14         0.1188   -6.1107    8.8524 C.ar      1 <0>        -0.1087
     17 C15         0.1234   -6.2288   10.2258 C.ar      1 <0>        -0.1207
     18 C16         0.1522   -7.4804   10.8166 C.ar      1 <0>        -0.1279
     19 C17         0.1766   -8.6228   10.0351 C.ar      1 <0>        -0.1252
     20 C18         0.1671   -8.5224    8.6603 C.ar      1 <0>        -0.1103
     21 O1          0.1284   -6.9229    3.8323 O.3       1 <0>        -0.6316
     22 C19         0.0660   -3.3168    4.6525 C.2       1 <0>         0.3704
     23 O2          0.0655   -3.1423    5.8587 O.2       1 <0>        -0.5062
     24 C20         0.0507   -2.2500    3.6183 C.2       1 <0>         0.4771
     25 O3          0.0368   -1.0577    3.8486 O.2       1 <0>        -0.5065
     26 C21        -1.1470   -4.8549    1.8798 C.ar      1 <0>        -0.0538
     27 C22        -2.3738   -4.2332    2.0202 C.ar      1 <0>        -0.0895
     28 C23        -3.4979   -4.7812    1.4316 C.ar      1 <0>        -0.1146
     29 C24        -3.3952   -5.9521    0.7018 C.ar      1 <0>        -0.0395
     30 C25        -2.1672   -6.5738    0.5616 C.ar      1 <0>        -0.1126
     31 C26        -1.0428   -6.0218    1.1460 C.ar      1 <0>        -0.0711
     32 Cl1        -4.8068   -6.6413   -0.0373 Cl        1 <0>        -0.0891
     33 H2          1.0042    1.8801    0.0026 H         1 <0>         0.0684
     34 H3         -0.5455    1.8639   -0.8728 H         1 <0>         0.0638
     35 H4         -0.5286    1.8543    0.9071 H         1 <0>         0.0661
     36 H5         -0.0067   -0.1414   -2.1313 H         1 <0>         0.1168
     37 H6          0.0274   -2.6019   -2.1525 H         1 <0>         0.1218
     38 H7          0.0551   -3.8531   -0.0333 H         1 <0>         0.1262
     39 H8          0.0244   -0.1651    2.1326 H         1 <0>         0.1519
     40 H9          0.1007   -5.0323    6.6203 H         1 <0>         0.1416
     41 H10         0.1527   -8.0335    5.9771 H         1 <0>         0.1299
     42 H11         0.0966   -5.1335    8.3930 H         1 <0>         0.1333
     43 H12         0.1048   -5.3425   10.8426 H         1 <0>         0.1209
     44 H13         0.1560   -7.5661   11.8932 H         1 <0>         0.1170
     45 H14         0.1994   -9.5955   10.5039 H         1 <0>         0.1189
     46 H15         0.1820   -9.4147    8.0520 H         1 <0>         0.1232
     47 H16        -2.4539   -3.3194    2.5902 H         1 <0>         0.1186
     48 H17        -4.4563   -4.2957    1.5416 H         1 <0>         0.1253
     49 H18        -2.0865   -7.4880   -0.0077 H         1 <0>         0.1276
     50 H19        -0.0833   -6.5044    1.0327 H         1 <0>         0.1327
@<TRIPOS>BOND
     1    1    2 1
     2    1   33 1
     3    1   34 1
     4    1   35 1
     5    2    7 ar
     6    2    3 ar
     7    3    4 ar
     8    3   36 1
     9    4    5 ar
    10    4   37 1
    11    5    6 ar
    12    5   38 1
    13    6    7 ar
    14    6    8 1
    15    7   39 1
    16    8   24 am
    17    8    9 1
    18    9   10 1
    19    9   11 1
    20    9   26 1
    21   11   12 2
    22   11   22 1
    23   12   13 1
    24   12   21 1
    25   13   14 2
    26   13   40 1
    27   14   15 1
    28   14   41 1
    29   15   20 ar
    30   15   16 ar
    31   16   17 ar
    32   16   42 1
    33   17   18 ar
    34   17   43 1
    35   18   19 ar
    36   18   44 1
    37   19   20 ar
    38   19   45 1
    39   20   46 1
    40   22   23 2
    41   22   24 1
    42   24   25 2
    43   26   31 ar
    44   26   27 ar
    45   27   28 ar
    46   27   47 1
    47   28   29 ar
    48   28   48 1
    49   29   30 ar
    50   29   32 1
    51   30   31 ar
    52   30   49 1
    53   31   50 1
@<TRIPOS>MOLECULE
ZINC13739179
   46    49     0     0     0
SMALL
USER_CHARGES

@<TRIPOS>ATOM
      1 C1         -0.0187    1.5258    0.0104 C.3       1 <0>        -0.1484
      2 C2          0.0021   -0.0041    0.0020 C.3       1 <0>        -0.1079
      3 C3         -1.4333   -0.5336    0.0129 C.3       1 <0>         0.1141
      4 C4         -1.4100   -2.0644   -0.0115 C.3       1 <0>        -0.0730
      5 C5         -2.8319   -2.5655    0.2320 C.2       1 <0>        -0.0012
      6 C6         -3.7484   -1.7270    0.7704 C.2       1 <0>        -0.2767
      7 S1         -5.2403   -2.6776    0.8860 S.3       1 <0>         0.0652
      8 C7         -4.6391   -4.1946    0.2148 C.ar      1 <0>         0.1559
      9 C8         -3.2801   -3.9103   -0.0816 C.ar      1 <0>        -0.3081
     10 C9         -2.5105   -4.9639   -0.6491 C.ar      1 <0>         0.5003
     11 N1         -3.1490   -6.1128   -0.8442 N.ar      1 <0>        -0.6327
     12 C10        -4.4241   -6.3108   -0.5435 C.ar      1 <0>         0.3465
     13 N2         -5.2005   -5.3650   -0.0095 N.ar      1 <0>        -0.5310
     14 S2         -5.1273   -7.8945   -0.8631 S.3       1 <0>         0.0207
     15 C11        -3.7563   -8.8487   -1.5706 C.3       1 <0>        -0.1651
     16 C12        -4.2288  -10.2427   -1.8940 C.2       1 <0>         0.4156
     17 O1         -5.3771  -10.5611   -1.6693 O.2       1 <0>        -0.4299
     18 C13        -3.2969  -11.2172   -2.4822 C.ar      1 <0>        -0.1429
     19 C14        -1.9700  -10.8553   -2.7374 C.ar      1 <0>        -0.0619
     20 C15        -1.1025  -11.7739   -3.2883 C.ar      1 <0>        -0.1021
     21 C16        -1.5419  -13.0526   -3.5895 C.ar      1 <0>        -0.0635
     22 C17        -2.8545  -13.4182   -3.3395 C.ar      1 <0>        -0.1054
     23 C18        -3.7319  -12.5121   -2.7837 C.ar      1 <0>        -0.0542
     24 Br1        -0.3442  -14.3051   -4.3462 Br        1 <0>        -0.0462
     25 O2         -1.2047   -4.8051   -0.9719 O.3       1 <0>        -0.6566
     26 C19        -3.5178   -0.3037    1.1722 C.3       1 <0>         0.1611
     27 O3         -2.1006   -0.0712    1.1903 O.3       1 <0>        -0.3654
     28 C20        -2.1729   -0.0203   -1.2242 C.3       1 <0>        -0.1795
     29 H1          1.0039    1.9031    0.0027 H         1 <0>         0.0493
     30 H2         -0.5459    1.8868   -0.8726 H         1 <0>         0.0538
     31 H3         -0.5289    1.8773    0.9072 H         1 <0>         0.0612
     32 H4          0.5123   -0.3556   -0.8948 H         1 <0>         0.0755
     33 H5          0.5293   -0.3651    0.8851 H         1 <0>         0.0691
     34 H6         -1.0588   -2.4116   -0.9832 H         1 <0>         0.0965
     35 H7         -0.7499   -2.4349    0.7728 H         1 <0>         0.0792
     36 H8         -3.4076   -8.3627   -2.4819 H         1 <0>         0.1290
     37 H9         -2.9395   -8.8997   -0.8507 H         1 <0>         0.1291
     38 H10        -1.6262   -9.8585   -2.5038 H         1 <0>         0.1494
     39 H11        -0.0778  -11.4959   -3.4859 H         1 <0>         0.1416
     40 H12        -3.1902  -14.4168   -3.5773 H         1 <0>         0.1394
     41 H13        -4.7538  -12.7999   -2.5852 H         1 <0>         0.1451
     42 H14        -3.9920    0.3637    0.4527 H         1 <0>         0.0633
     43 H15        -3.9318   -0.1297    2.1654 H         1 <0>         0.0980
     44 H16        -1.6631   -0.3681   -2.1227 H         1 <0>         0.0648
     45 H17        -3.1958   -0.3966   -1.2182 H         1 <0>         0.0652
     46 H18        -2.1866    1.0696   -1.2131 H         1 <0>         0.0628
@<TRIPOS>BOND
     1    1    2 1
     2    1   29 1
     3    1   30 1
     4    1   31 1
     5    2    3 1
     6    2   32 1
     7    2   33 1
     8    3   27 1
     9    3    4 1
    10    3   28 1
    11    4    5 1
    12    4   34 1
    13    4   35 1
    14    5    9 1
    15    5    6 2
    16    6    7 1
    17    6   26 1
    18    7    8 1
    19    8   13 ar
    20    8    9 ar
    21    9   10 ar
    22   10   11 ar
    23   10   25 1
    24   11   12 ar
    25   12   13 ar
    26   12   14 1
    27   14   15 1
    28   15   16 1
    29   15   36 1
    30   15   37 1
    31   16   17 2
    32   16   18 1
    33   18   23 ar
    34   18   19 ar
    35   19   20 ar
    36   19   38 1
    37   20   21 ar
    38   20   39 1
    39   21   22 ar
    40   21   24 1
    41   22   23 ar
    42   22   40 1
    43   23   41 1
    44   26   27 1
    45   26   42 1
    46   26   43 1
    47   28   44 1
    48   28   45 1
    49   28   46 1
@<TRIPOS>MOLECULE
ZINC20176296
   49    51     0     0     0
SMALL
USER_CHARGES
N-[4-bromo-2-[(E)-(4-ethoxyphenyl)iminomethyl]phenyl]-4-methyl-benzenesulfonamide
@<TRIPOS>ATOM
      1 C1         -4.9659   -5.7347    6.5749 C.3       1 <0>        -0.1529
      2 C2         -4.1031   -4.5484    6.1399 C.3       1 <0>         0.0537
      3 O1         -4.8973   -3.6348    5.3806 O.3       1 <0>        -0.3196
      4 C3         -4.2781   -2.5184    4.9151 C.ar      1 <0>         0.0998
      5 C4         -4.9931   -1.5898    4.1702 C.ar      1 <0>        -0.1361
      6 C5         -4.3689   -0.4561    3.6956 C.ar      1 <0>        -0.0695
      7 C6         -3.0152   -0.2418    3.9655 C.ar      1 <0>         0.0718
      8 C7         -2.2986   -1.1809    4.7111 C.ar      1 <0>        -0.1291
      9 C8         -2.9323   -2.3092    5.1862 C.ar      1 <0>        -0.1920
     10 N1         -2.3913    0.8822    3.4959 N.2       1 <0>        -0.4185
     11 C9         -1.6056    1.5673    4.2794 C.2       1 <0>         0.2060
     12 C10        -0.9357    2.7742    3.7751 C.ar      1 <0>        -0.1403
     13 C11        -0.0924    3.5127    4.6117 C.ar      1 <0>        -0.0260
     14 C12         0.5323    4.6441    4.1319 C.ar      1 <0>        -0.1743
     15 C13         0.3292    5.0546    2.8232 C.ar      1 <0>        -0.0383
     16 C14        -0.4962    4.3331    1.9839 C.ar      1 <0>        -0.2464
     17 C15        -1.1385    3.1941    2.4497 C.ar      1 <0>         0.2987
     18 N2         -1.9742    2.4687    1.6068 N.2       1 <0>        -0.9962
     19 S1         -1.6038    2.3219   -0.0005 S.o2      1 <0>         2.5854
     20 O2         -1.4155    3.6403   -0.4960 O.2       1 <0>        -1.0417
     21 O3         -2.5578    1.4279   -0.5571 O.2       1 <0>        -0.9887
     22 C16        -0.0396    1.5172   -0.1033 C.ar      1 <0>        -0.6565
     23 C17         1.1227    2.2652   -0.1199 C.ar      1 <0>        -0.0230
     24 C18         2.3495    1.6343   -0.2078 C.ar      1 <0>        -0.1480
     25 C19         2.4141    0.2552   -0.2770 C.ar      1 <0>        -0.0572
     26 C20         1.2517   -0.4929   -0.2594 C.ar      1 <0>        -0.1494
     27 C21         0.0249    0.1381   -0.1730 C.ar      1 <0>        -0.0187
     28 C22         3.7516   -0.4328   -0.3712 C.3       1 <0>        -0.1167
     29 Br1         1.6716    5.6415    5.2647 Br        1 <0>        -0.0935
     30 H1         -4.3545   -6.4379    7.1594 H         1 <0>         0.0758
     31 H2         -5.3624   -6.2455    5.6850 H         1 <0>         0.0657
     32 H3         -5.8011   -5.3735    7.1930 H         1 <0>         0.0654
     33 H4         -3.7066   -4.0376    7.0298 H         1 <0>         0.0592
     34 H5         -3.2679   -4.9095    5.5218 H         1 <0>         0.0594
     35 H6         -6.0397   -1.7563    3.9621 H         1 <0>         0.1291
     36 H7         -4.9258    0.2656    3.1164 H         1 <0>         0.1378
     37 H8         -1.2509   -1.0213    4.9186 H         1 <0>         0.1203
     38 H9         -2.3801   -3.0338    5.7662 H         1 <0>         0.1211
     39 H10        -1.4443    1.2418    5.3177 H         1 <0>         0.0861
     40 H11         0.0688    3.1973    5.6319 H         1 <0>         0.1191
     41 H12         0.8234    5.9421    2.4566 H         1 <0>         0.1150
     42 H13        -0.6455    4.6577    0.9648 H         1 <0>         0.1565
     43 H14         1.0723    3.3427   -0.0655 H         1 <0>         0.1323
     44 H15         3.2576    2.2187   -0.2208 H         1 <0>         0.1209
     45 H16         1.3022   -1.5704   -0.3135 H         1 <0>         0.1197
     46 H17        -0.8832   -0.4463   -0.1595 H         1 <0>         0.1314
     47 H18         3.6015   -1.5216   -0.4166 H         1 <0>         0.0637
     48 H19         4.3557   -0.1825    0.5133 H         1 <0>         0.0701
     49 H20         4.2738   -0.0964   -1.2790 H         1 <0>         0.0690
@<TRIPOS>BOND
     1    1    2 1
     2    1   30 1
     3    1   31 1
     4    1   32 1
     5    2    3 1
     6    2   33 1
     7    2   34 1
     8    3    4 1
     9    4    9 ar
    10    4    5 ar
    11    5    6 ar
    12    5   35 1
    13    6    7 ar
    14    6   36 1
    15    7    8 ar
    16    7   10 1
    17    8    9 ar
    18    8   37 1
    19    9   38 1
    20   10   11 2
    21   11   12 1
    22   11   39 1
    23   12   17 ar
    24   12   13 ar
    25   13   14 ar
    26   13   40 1
    27   14   15 ar
    28   14   29 1
    29   15   16 ar
    30   15   41 1
    31   16   17 ar
    32   16   42 1
    33   17   18 1
    34   18   19 1
    35   19   20 2
    36   19   21 2
    37   19   22 1
    38   22   27 ar
    39   22   23 ar
    40   23   24 ar
    41   23   43 1
    42   24   25 ar
    43   24   44 1
    44   25   26 ar
    45   25   28 1
    46   26   27 ar
    47   26   45 1
    48   27   46 1
    49   28   47 1
    50   28   48 1
    51   28   49 1
@<TRIPOS>MOLECULE
ZINC33581689
   44    46     0     0     0
SMALL
USER_CHARGES
4-chloro-N-[4-(2-methoxyphenoxy)phenyl]-3-(trifluoromethyl)benzenesulfonamide
@<TRIPOS>ATOM
      1 C1          1.7713    3.9201    3.6938 C.3       1 <0>         0.0218
      2 O1          0.4616    3.3488    3.6711 O.3       1 <0>        -0.2981
      3 C2         -0.3070    3.6099    2.5802 C.ar      1 <0>         0.1165
      4 C3          0.1884    4.3987    1.5543 C.ar      1 <0>        -0.2024
      5 C4         -0.5941    4.6628    0.4457 C.ar      1 <0>        -0.0856
      6 C5         -1.8717    4.1416    0.3573 C.ar      1 <0>        -0.1466
      7 C6         -2.3723    3.3540    1.3770 C.ar      1 <0>        -0.0896
      8 C7         -1.5911    3.0808    2.4889 C.ar      1 <0>         0.0686
      9 O2         -2.0798    2.3017    3.4902 O.3       1 <0>        -0.2575
     10 C8         -2.5783    2.9193    4.5943 C.ar      1 <0>         0.0711
     11 C9         -2.6797    4.3025    4.6286 C.ar      1 <0>        -0.1750
     12 C10        -3.1903    4.9301    5.7477 C.ar      1 <0>        -0.1217
     13 C11        -3.5929    4.1770    6.8428 C.ar      1 <0>         0.1872
     14 C12        -3.4862    2.7928    6.8098 C.ar      1 <0>        -0.1229
     15 C13        -2.9799    2.1663    5.6881 C.ar      1 <0>        -0.1274
     16 N1         -4.1063    4.8126    7.9788 N.2       1 <0>        -1.0683
     17 S1         -3.1797    4.9416    9.3452 S.o2      1 <0>         2.5737
     18 O3         -3.9491    5.6726   10.2901 O.2       1 <0>        -0.9948
     19 O4         -2.6737    3.6419    9.6171 O.2       1 <0>        -1.0320
     20 C14        -1.7913    5.9480    8.9400 C.ar      1 <0>        -0.6481
     21 C15        -0.6676    5.3782    8.3704 C.ar      1 <0>         0.0170
     22 C16         0.4195    6.1679    8.0472 C.ar      1 <0>        -0.1338
     23 C17         0.3876    7.5272    8.3042 C.ar      1 <0>         0.0346
     24 C18        -0.7347    8.0957    8.8793 C.ar      1 <0>        -0.2074
     25 C19        -1.8237    7.3057    9.1969 C.ar      1 <0>         0.0282
     26 C20        -0.7704    9.5761    9.1590 C.3       1 <0>         0.5122
     27 F1         -1.9994    9.9120    9.7370 F         1 <0>        -0.1714
     28 F2          0.2652    9.9096   10.0385 F         1 <0>        -0.1738
     29 F3         -0.6102   10.2810    7.9612 F         1 <0>        -0.1727
     30 Cl1         1.7553    8.5188    7.9044 Cl        1 <0>        -0.0552
     31 H1          2.2809    3.6319    4.6250 H         1 <0>         0.1025
     32 H2          1.6941    5.0162    3.6421 H         1 <0>         0.0563
     33 H3          2.3469    3.5519    2.8317 H         1 <0>         0.0545
     34 H4          1.1861    4.8068    1.6206 H         1 <0>         0.1314
     35 H5         -0.2066    5.2774   -0.3533 H         1 <0>         0.1264
     36 H6         -2.4797    4.3500   -0.5106 H         1 <0>         0.1290
     37 H7         -3.3706    2.9481    1.3054 H         1 <0>         0.1376
     38 H8         -2.3627    4.8883    3.7785 H         1 <0>         0.1079
     39 H9         -3.2734    6.0067    5.7726 H         1 <0>         0.1126
     40 H10        -3.7994    2.2065    7.6609 H         1 <0>         0.1256
     41 H11        -2.8968    1.0898    5.6623 H         1 <0>         0.1172
     42 H12        -0.6412    4.3166    8.1740 H         1 <0>         0.1499
     43 H13         1.2956    5.7234    7.5985 H         1 <0>         0.1443
     44 H14        -2.6998    7.7494    9.6463 H         1 <0>         0.1581
@<TRIPOS>BOND
     1    1    2 1
     2    1   31 1
     3    1   32 1
     4    1   33 1
     5    2    3 1
     6    3    8 ar
     7    3    4 ar
     8    4    5 ar
     9    4   34 1
    10    5    6 ar
    11    5   35 1
    12    6    7 ar
    13    6   36 1
    14    7    8 ar
    15    7   37 1
    16    8    9 1
    17    9   10 1
    18   10   15 ar
    19   10   11 ar
    20   11   12 ar
    21   11   38 1
    22   12   13 ar
    23   12   39 1
    24   13   14 ar
    25   13   16 1
    26   14   15 ar
    27   14   40 1
    28   15   41 1
    29   16   17 1
    30   17   18 2
    31   17   19 2
    32   17   20 1
    33   20   25 ar
    34   20   21 ar
    35   21   22 ar
    36   21   42 1
    37   22   23 ar
    38   22   43 1
    39   23   24 ar
    40   23   30 1
    41   24   25 ar
    42   24   26 1
    43   25   44 1
    44   26   27 1
    45   26   28 1
    46   26   29 1
@<TRIPOS>MOLECULE
ZINC39546073
   37    39     0     0     0
SMALL
USER_CHARGES

@<TRIPOS>ATOM
      1 C1         -0.0116    1.3852    0.0710 C.ar      1 <0>        -0.1408
      2 C2          0.4457    0.7289    1.1989 C.ar      1 <0>        -0.1067
      3 C3          1.6498    0.0529    1.1655 C.ar      1 <0>        -0.1464
      4 C4          2.4005    0.0323   -0.0014 C.ar      1 <0>         0.1123
      5 C5          1.9390    0.6914   -1.1320 C.ar      1 <0>        -0.1335
      6 C6          0.7344    1.3663   -1.0931 C.ar      1 <0>        -0.1066
      7 O1          3.5855   -0.6315   -0.0368 O.3       1 <0>        -0.2354
      8 C7          3.5606   -1.9877    0.0609 C.ar      1 <0>         0.0535
      9 C8          2.3503   -2.6618    0.0623 C.ar      1 <0>        -0.1533
     10 C9          2.3267   -4.0407    0.1617 C.ar      1 <0>        -0.1939
     11 C10         3.5089   -4.7509    0.2605 C.ar      1 <0>        -0.0871
     12 C11         4.7207   -4.0860    0.2603 C.ar      1 <0>        -0.2442
     13 C12         4.7527   -2.7032    0.1541 C.ar      1 <0>         0.2725
     14 N1          5.9785   -2.0282    0.1470 N.2       1 <0>        -1.0614
     15 S1          7.3938   -2.8808    0.2579 S.o2      1 <0>         2.5938
     16 O2          7.4129   -3.4697    1.5510 O.2       1 <0>        -1.0270
     17 O3          7.4983   -3.6510   -0.9316 O.2       1 <0>        -1.0102
     18 C13         8.7111   -1.7112    0.2177 C.ar      1 <0>        -0.5993
     19 C14         9.5297   -1.5541    1.3206 C.ar      1 <0>        -0.0148
     20 C15        10.5631   -0.6369    1.2897 C.ar      1 <0>        -0.1151
     21 C16        10.7788    0.1247    0.1549 C.ar      1 <0>        -0.0451
     22 C17         9.9606   -0.0322   -0.9488 C.ar      1 <0>        -0.1116
     23 C18         8.9295   -0.9542   -0.9194 C.ar      1 <0>         0.0646
     24 Cl1         7.9055   -1.1561   -2.3066 Cl        1 <0>        -0.0171
     25 Br1        12.1921    1.3804    0.1135 Br        1 <0>        -0.0420
     26 H1         -0.9553    1.9097    0.0980 H         1 <0>         0.1192
     27 H2         -0.1389    0.7452    2.1068 H         1 <0>         0.1218
     28 H3          2.0069   -0.4589    2.0469 H         1 <0>         0.1283
     29 H4          2.5214    0.6772   -2.0414 H         1 <0>         0.1288
     30 H5          0.3750    1.8798   -1.9726 H         1 <0>         0.1231
     31 H6          1.4250   -2.1101   -0.0140 H         1 <0>         0.1124
     32 H7          1.3822   -4.5644    0.1626 H         1 <0>         0.1054
     33 H8          3.4854   -5.8278    0.3383 H         1 <0>         0.1053
     34 H9          5.6425   -4.6433    0.3382 H         1 <0>         0.1047
     35 H10         9.3615   -2.1481    2.2067 H         1 <0>         0.1563
     36 H11        11.2021   -0.5144    2.1516 H         1 <0>         0.1431
     37 H12        10.1287    0.5622   -1.8347 H         1 <0>         0.1464
@<TRIPOS>BOND
     1    1    6 ar
     2    1    2 ar
     3    1   26 1
     4    2    3 ar
     5    2   27 1
     6    3    4 ar
     7    3   28 1
     8    4    5 ar
     9    4    7 1
    10    5    6 ar
    11    5   29 1
    12    6   30 1
    13    7    8 1
    14    8   13 ar
    15    8    9 ar
    16    9   10 ar
    17    9   31 1
    18   10   11 ar
    19   10   32 1
    20   11   12 ar
    21   11   33 1
    22   12   13 ar
    23   12   34 1
    24   13   14 1
    25   14   15 1
    26   15   16 2
    27   15   17 2
    28   15   18 1
    29   18   23 ar
    30   18   19 ar
    31   19   20 ar
    32   19   35 1
    33   20   21 ar
    34   20   36 1
    35   21   22 ar
    36   21   25 1
    37   22   23 ar
    38   22   37 1
    39   23   24 1
@<TRIPOS>MOLECULE
ZINC40881050
   39    41     0     0     0
SMALL
USER_CHARGES

@<TRIPOS>ATOM
      1 C1         -0.0186    1.4991    0.0421 C.3       1 <0>        -0.1124
      2 C2          0.0012   -0.0052   -0.0463 C.2       1 <0>         0.1874
      3 C3         -1.1742   -0.6963   -0.0927 C.2       1 <0>        -0.2822
      4 C4         -1.1217   -2.1604   -0.1786 C.2       1 <0>         0.4112
      5 O1         -2.1461   -2.8252   -0.2231 O.2       1 <0>        -0.5503
      6 C5          0.1505   -2.7793   -0.2089 C.2       1 <0>        -0.3100
      7 C6          1.2606   -2.0108   -0.1583 C.2       1 <0>         0.2062
      8 N1          1.1850   -0.6605   -0.0848 N.pl3     1 <0>        -0.2377
      9 O2          2.3846    0.0906   -0.0410 O.3       1 <0>        -0.6256
     10 C7          2.6148   -2.6713   -0.1902 C.3       1 <0>        -0.1128
     11 Br1         0.2953   -4.6616   -0.3184 Br        1 <0>        -0.0509
     12 C8         -2.4748    0.0155   -0.0566 C.ar      1 <0>         0.0385
     13 C9         -2.8448    0.7371    1.0774 C.ar      1 <0>        -0.1014
     14 C10        -4.0549    1.3979    1.1080 C.ar      1 <0>        -0.1163
     15 C11        -4.9043    1.3450    0.0110 C.ar      1 <0>         0.0572
     16 C12        -4.5388    0.6268   -1.1196 C.ar      1 <0>        -0.1345
     17 C13        -3.3272   -0.0310   -1.1586 C.ar      1 <0>        -0.0833
     18 O3         -6.0960    1.9971    0.0441 O.3       1 <0>        -0.2519
     19 C14        -7.2317    1.2508    0.0512 C.ar      1 <0>         0.1323
     20 C15        -8.4698    1.8690   -0.0492 C.ar      1 <0>        -0.1391
     21 C16        -9.6230    1.1086   -0.0422 C.ar      1 <0>        -0.0754
     22 C17        -9.5440   -0.2687    0.0648 C.ar      1 <0>        -0.0724
     23 C18        -8.3103   -0.8871    0.1655 C.ar      1 <0>        -0.0694
     24 C19        -7.1545   -0.1308    0.1532 C.ar      1 <0>        -0.1795
     25 Cl1       -10.9948   -1.2221    0.0733 Cl        1 <0>        -0.0759
     26 H1          1.0042    1.8752    0.0643 H         1 <0>         0.0919
     27 H2         -0.5371    1.9073   -0.8254 H         1 <0>         0.0719
     28 H3         -0.5372    1.8028    0.9515 H         1 <0>         0.0736
     29 H4          2.4904   -3.7523   -0.2541 H         1 <0>         0.0818
     30 H5          3.1712   -2.3176   -1.0582 H         1 <0>         0.0788
     31 H6          3.1623   -2.4217    0.7187 H         1 <0>         0.0787
     32 H7         -2.1846    0.7783    1.9311 H         1 <0>         0.1294
     33 H8         -4.3423    1.9568    1.9863 H         1 <0>         0.1287
     34 H9         -5.2019    0.5869   -1.9711 H         1 <0>         0.1253
     35 H10        -3.0413   -0.5855   -2.0402 H         1 <0>         0.1275
     36 H11        -8.5319    2.9440   -0.1324 H         1 <0>         0.1404
     37 H12       -10.5869    1.5894   -0.1200 H         1 <0>         0.1389
     38 H13        -8.2508   -1.9622    0.2494 H         1 <0>         0.1370
     39 H14        -6.1915   -0.6142    0.2270 H         1 <0>         0.1444
@<TRIPOS>BOND
     1    1    2 1
     2    1   26 1
     3    1   27 1
     4    1   28 1
     5    2    8 1
     6    2    3 2
     7    3    4 1
     8    3   12 1
     9    4    5 2
    10    4    6 1
    11    6    7 2
    12    6   11 1
    13    7    8 1
    14    7   10 1
    15    8    9 1
    16   10   29 1
    17   10   30 1
    18   10   31 1
    19   12   17 ar
    20   12   13 ar
    21   13   14 ar
    22   13   32 1
    23   14   15 ar
    24   14   33 1
    25   15   16 ar
    26   15   18 1
    27   16   17 ar
    28   16   34 1
    29   17   35 1
    30   18   19 1
    31   19   24 ar
    32   19   20 ar
    33   20   21 ar
    34   20   36 1
    35   21   22 ar
    36   21   37 1
    37   22   23 ar
    38   22   25 1
    39   23   24 ar
    40   23   38 1
    41   24   39 1
@<TRIPOS>MOLECULE
ZINC39775356
   49    52     0     0     0
SMALL
USER_CHARGES

@<TRIPOS>ATOM
      1 C1         -0.0187    1.5258    0.0104 C.3       1 <0>        -0.1590
      2 C2          0.0021   -0.0041    0.0020 C.3       1 <0>        -0.1041
      3 C3          0.7182   -0.4975   -1.2568 C.3       1 <0>        -0.0748
      4 H1          0.2444   -0.0644   -2.1377 H         1 <0>         0.1015
      5 C4          0.6303   -2.0233   -1.3286 C.3       1 <0>        -0.1486
      6 S1          2.4600    0.0058   -1.1981 S.3       1 <0>        -0.0024
      7 C5          3.1023   -0.4984   -2.7595 C.2       1 <0>         0.4326
      8 N1          2.2885   -1.0921   -3.6243 N.2       1 <0>        -0.6800
      9 C6          2.7314   -1.5754   -4.7756 C.2       1 <0>         0.5164
     10 O1          1.9437   -2.0673   -5.5606 O.2       1 <0>        -0.4898
     11 C7          4.1849   -1.5250   -5.1255 C.3       1 <0>        -0.2151
     12 H2          4.5824   -2.5385   -5.0718 H         1 <0>         0.1176
     13 C8          4.4143   -0.9995   -6.5388 C.3       1 <0>         0.0641
     14 H3          3.9012   -0.0460   -6.6645 H         1 <0>         0.0655
     15 C9          5.9042   -0.8082   -6.7355 C.2       1 <0>        -0.3938
     16 C10         6.6964   -0.4210   -5.6510 C.2       1 <0>         0.3041
     17 C11         8.1766   -0.1871   -5.8417 C.3       1 <0>        -0.0833
     18 C12         8.6924   -1.1137   -6.9461 C.3       1 <0>        -0.1104
     19 C13         7.9030   -0.8366   -8.2286 C.3       1 <0>        -0.1336
     20 C14         6.4343   -1.0190   -7.9616 C.2       1 <0>         0.3417
     21 O2          5.6274   -1.4020   -8.9679 O.3       1 <0>        -0.5788
     22 N2          6.1809   -0.2798   -4.4446 N.2       1 <0>        -0.6035
     23 C15         4.9485   -0.6711   -4.1515 C.2       1 <0>         0.4886
     24 N3          4.3858   -0.2649   -3.0315 N.2       1 <0>        -0.6135
     25 C16         3.8914   -1.9945   -7.5425 C.ar      1 <0>         0.0499
     26 C17         4.4045   -3.2780   -7.5747 C.ar      1 <0>        -0.0934
     27 C18         3.9262   -4.1914   -8.4950 C.ar      1 <0>        -0.0938
     28 C19         2.9330   -3.8219   -9.3844 C.ar      1 <0>        -0.0473
     29 C20         2.4189   -2.5368   -9.3518 C.ar      1 <0>        -0.0124
     30 C21         2.8953   -1.6253   -8.4265 C.ar      1 <0>        -0.0764
     31 Cl1         1.1730   -2.0713  -10.4675 Cl        1 <0>        -0.0749
     32 Cl2         2.3322   -4.9686  -10.5410 Cl        1 <0>        -0.0786
     33 H4          1.0039    1.9031    0.0027 H         1 <0>         0.0649
     34 H5         -0.5459    1.8868   -0.8726 H         1 <0>         0.0569
     35 H6         -0.5289    1.8773    0.9072 H         1 <0>         0.0556
     36 H7          0.5293   -0.3651    0.8851 H         1 <0>         0.0701
     37 H8         -1.0205   -0.3814    0.0098 H         1 <0>         0.0786
     38 H9          1.1041   -2.4564   -0.4477 H         1 <0>         0.0554
     39 H10        -0.4163   -2.3257   -1.3639 H         1 <0>         0.0589
     40 H11         1.1405   -2.3748   -2.2254 H         1 <0>         0.0826
     41 H12         8.3476    0.8508   -6.1274 H         1 <0>         0.0912
     42 H13         8.7022   -0.4014   -4.9112 H         1 <0>         0.0894
     43 H14         9.7512   -0.9213   -7.1198 H         1 <0>         0.0759
     44 H15         8.5515   -2.1524   -6.6473 H         1 <0>         0.0678
     45 H16         8.0886    0.1864   -8.5557 H         1 <0>         0.0882
     46 H17         8.2198   -1.5304   -9.0073 H         1 <0>         0.0831
     47 H18         5.1799   -3.5669   -6.8806 H         1 <0>         0.1168
     48 H19         4.3280   -5.1936   -8.5201 H         1 <0>         0.1278
     49 H20         2.4918   -0.6239   -8.3978 H         1 <0>         0.1224
@<TRIPOS>BOND
     1    1    2 1
     2    1   33 1
     3    1   34 1
     4    1   35 1
     5    2    3 1
     6    2   36 1
     7    2   37 1
     8    3    4 1
     9    3    5 1
    10    3    6 1
    11    5   38 1
    12    5   39 1
    13    5   40 1
    14    6    7 1
    15    7   24 1
    16    7    8 2
    17    8    9 1
    18    9   10 2
    19    9   11 1
    20   11   12 1
    21   11   23 1
    22   11   13 1
    23   13   14 1
    24   13   15 1
    25   13   25 1
    26   15   20 2
    27   15   16 1
    28   16   17 1
    29   16   22 2
    30   17   18 1
    31   17   41 1
    32   17   42 1
    33   18   19 1
    34   18   43 1
    35   18   44 1
    36   19   20 1
    37   19   45 1
    38   19   46 1
    39   20   21 1
    40   22   23 1
    41   23   24 2
    42   25   30 ar
    43   25   26 ar
    44   26   27 ar
    45   26   47 1
    46   27   28 ar
    47   27   48 1
    48   28   29 ar
    49   28   32 1
    50   29   30 ar
    51   29   31 1
    52   30   49 1
@<TRIPOS>MOLECULE
ZINC13014886
   44    46     0     0     0
SMALL
USER_CHARGES
2,3,5-trichloro-6-[2-[2,5-dimethyl-1-(2-thienylmethyl)pyrrol-3-yl]-2-oxo-ethoxy]benzoic acid
@<TRIPOS>ATOM
      1 C1         -0.0184    1.5028    0.0103 C.3       1 <0>        -0.0837
      2 C2          0.0021   -0.0041    0.0020 C.2       1 <0>         0.0075
      3 C3         -0.0036   -0.7768   -1.0970 C.2       1 <0>        -0.1451
      4 C4          0.0256   -2.1676   -0.6250 C.2       1 <0>        -0.2514
      5 C5          0.0377   -2.0982    0.7554 C.2       1 <0>         0.1152
      6 N1          0.0234   -0.8010    1.1099 N.pl3     1 <0>        -0.4330
      7 C6          0.0298   -0.3121    2.4909 C.3       1 <0>         0.1870
      8 C7         -1.3886   -0.1632    2.9777 C.2       1 <0>        -0.1821
      9 C8         -2.1775   -1.0731    3.5998 C.2       1 <0>        -0.1266
     10 C9         -3.4607   -0.7103    3.9637 C.2       1 <0>        -0.1606
     11 C10        -3.8959    0.5413    3.6782 C.2       1 <0>        -0.1625
     12 S1         -2.4686    1.2549    2.8776 S.3       1 <0>         0.0520
     13 C11         0.0627   -3.2726    1.6995 C.3       1 <0>        -0.0962
     14 C12         0.0348   -3.3790   -1.4480 C.2       1 <0>         0.4311
     15 O1          0.0551   -4.4712   -0.9197 O.2       1 <0>        -0.4435
     16 C13         0.0190   -3.2691   -2.9509 C.3       1 <0>         0.0410
     17 O2          0.0319   -4.5779   -3.5244 O.3       1 <0>        -0.2935
     18 C14         0.0201   -4.6571   -4.8789 C.ar      1 <0>         0.1330
     19 C15         1.2139   -4.6809   -5.5858 C.ar      1 <0>        -0.0431
     20 C16         1.2015   -4.7610   -6.9651 C.ar      1 <0>        -0.0978
     21 C17        -0.0000   -4.8182   -7.6535 C.ar      1 <0>        -0.0274
     22 C18        -1.1972   -4.7960   -6.9668 C.ar      1 <0>        -0.0024
     23 C19        -1.1980   -4.7209   -5.5696 C.ar      1 <0>        -0.0710
     24 C20        -2.4716   -4.7030   -4.8292 C.2       1 <0>         0.5097
     25 O3         -3.0174   -3.6452   -4.5847 O.co2     1 <0>        -0.6138
     26 Cl1        -2.6990   -4.8679   -7.8347 Cl        1 <0>        -0.0305
     27 Cl2         0.0006   -4.9175   -9.3867 Cl        1 <0>        -0.0489
     28 Cl3         2.7259   -4.6094   -4.7357 Cl        1 <0>        -0.0494
     29 H1          1.0042    1.8801    0.0026 H         1 <0>         0.0712
     30 H2         -0.5455    1.8639   -0.8728 H         1 <0>         0.0840
     31 H3         -0.5286    1.8543    0.9071 H         1 <0>         0.0597
     32 H4         -0.0240   -0.4420   -2.1236 H         1 <0>         0.1495
     33 H5          0.5591   -1.0229    3.1256 H         1 <0>         0.1136
     34 H6          0.5313    0.6549    2.5317 H         1 <0>         0.1064
     35 H7         -1.8080   -2.0658    3.8105 H         1 <0>         0.1349
     36 H8         -4.1085   -1.4150    4.4639 H         1 <0>         0.1369
     37 H9         -4.8566    0.9904    3.8823 H         1 <0>         0.1876
     38 H10        -0.9588   -3.5697    1.9368 H         1 <0>         0.0802
     39 H11         0.5835   -4.1063    1.2286 H         1 <0>         0.1011
     40 H12         0.5814   -2.9911    2.6159 H         1 <0>         0.0626
     41 H13        -0.8071   -2.7861   -3.2411 H         1 <0>         0.0865
     42 H14         0.8982   -2.7177   -3.2841 H         1 <0>         0.0817
     43 H15         2.1337   -4.7789   -7.5102 H         1 <0>         0.1526
     44 O4         -3.0312   -5.8597   -4.4232 O.co2     1 <0>        -0.7226
@<TRIPOS>BOND
     1    1    2 1
     2    1   29 1
     3    1   30 1
     4    1   31 1
     5    2    6 1
     6    2    3 2
     7    3    4 1
     8    3   32 1
     9    4    5 2
    10    4   14 1
    11    5    6 1
    12    5   13 1
    13    6    7 1
    14    7    8 1
    15    7   33 1
    16    7   34 1
    17    8   12 1
    18    8    9 2
    19    9   10 1
    20    9   35 1
    21   10   11 2
    22   10   36 1
    23   11   12 1
    24   11   37 1
    25   13   38 1
    26   13   39 1
    27   13   40 1
    28   14   15 2
    29   14   16 1
    30   16   17 1
    31   16   41 1
    32   16   42 1
    33   17   18 1
    34   18   23 ar
    35   18   19 ar
    36   19   20 ar
    37   19   28 1
    38   20   21 ar
    39   20   43 1
    40   21   22 ar
    41   21   27 1
    42   22   23 ar
    43   22   26 1
    44   23   24 1
    45   24   25 2
    46   24   44 1
@<TRIPOS>MOLECULE
ZINC22228829
   44    46     0     0     0
SMALL
USER_CHARGES
(5Z)-5-[[5-chloro-2-[2-(2,4-dimethylphenoxy)ethoxy]phenyl]methylene]-2-thioxo-thiazolidin-4-one
@<TRIPOS>ATOM
      1 C1          1.4358   11.1622   -3.0424 C.3       1 <0>        -0.1112
      2 C2          1.2534    9.6842   -2.8111 C.ar      1 <0>        -0.1221
      3 C3          0.4406    9.2415   -1.7836 C.ar      1 <0>        -0.0876
      4 C4          0.2676    7.8875   -1.5728 C.ar      1 <0>        -0.2027
      5 C5          0.9185    6.9712   -2.3864 C.ar      1 <0>         0.1247
      6 C6          1.7329    7.4178   -3.4166 C.ar      1 <0>        -0.1077
      7 C7          1.8985    8.7733   -3.6267 C.ar      1 <0>        -0.0841
      8 C8          2.4368    6.4254   -4.3058 C.3       1 <0>        -0.1073
      9 O1          0.7541    5.6384   -2.1777 O.3       1 <0>        -0.3018
     10 C9         -0.0989    5.2511   -1.0986 C.3       1 <0>         0.0584
     11 C10        -0.1605    3.7244   -1.0199 C.3       1 <0>         0.0572
     12 O2          1.1305    3.2122   -0.6838 O.3       1 <0>        -0.2951
     13 C11         1.2493    1.8645   -0.5735 C.ar      1 <0>         0.1553
     14 C12         0.1489    1.0495   -0.7836 C.ar      1 <0>        -0.2036
     15 C13         0.2702   -0.3223   -0.6716 C.ar      1 <0>        -0.0642
     16 C14         1.4909   -0.8954   -0.3489 C.ar      1 <0>        -0.0666
     17 C15         2.5975   -0.1012   -0.1361 C.ar      1 <0>        -0.0579
     18 C16         2.4885    1.2900   -0.2464 C.ar      1 <0>        -0.0779
     19 C17         3.6616    2.1430   -0.0211 C.2       1 <0>         0.0056
     20 C18         4.7406    1.6523    0.6408 C.2       1 <0>        -0.1974
     21 C19         6.0692    2.2595    0.8556 C.2       1 <0>         0.5285
     22 O3          6.3472    3.3607    0.4179 O.3       1 <0>        -0.4995
     23 N1          6.9417    1.5466    1.5479 N.2       1 <0>        -0.6483
     24 C20         6.6294    0.3270    2.0314 C.2       1 <0>         0.3825
     25 S1          7.6119   -0.7393    2.9417 S.2       1 <0>        -0.5656
     26 S2          4.9408    0.0967    1.4986 S.3       1 <0>        -0.1494
     27 Cl1         1.6264   -2.6208   -0.2126 Cl        1 <0>        -0.0662
     28 H1          0.8493   11.7245   -2.3008 H         1 <0>         0.0628
     29 H2          1.0910   11.4202   -4.0546 H         1 <0>         0.0663
     30 H3          2.5001   11.4206   -2.9406 H         1 <0>         0.0678
     31 H4         -0.0626    9.9552   -1.1480 H         1 <0>         0.1226
     32 H5         -0.3708    7.5423   -0.7730 H         1 <0>         0.1268
     33 H6          2.5322    9.1216   -4.4289 H         1 <0>         0.1278
     34 H7          3.0314    6.9644   -5.0581 H         1 <0>         0.0633
     35 H8          1.6919    5.7932   -4.8113 H         1 <0>         0.0678
     36 H9          3.1009    5.7942   -3.6970 H         1 <0>         0.0744
     37 H10         0.2995    5.6512   -0.1546 H         1 <0>         0.0779
     38 H11        -1.1096    5.6506   -1.2686 H         1 <0>         0.0856
     39 H12        -0.8856    3.4260   -0.2484 H         1 <0>         0.0888
     40 H13        -0.4736    3.3194   -1.9935 H         1 <0>         0.0784
     41 H14        -0.8047    1.4871   -1.0397 H         1 <0>         0.1382
     42 H15        -0.5914   -0.9523   -0.8361 H         1 <0>         0.1365
     43 H16         3.5466   -0.5515    0.1147 H         1 <0>         0.1621
     44 H17         3.6665    3.1798   -0.3885 H         1 <0>         0.1572
@<TRIPOS>BOND
     1    1    2 1
     2    1   28 1
     3    1   29 1
     4    1   30 1
     5    2    7 ar
     6    2    3 ar
     7    3    4 ar
     8    3   31 1
     9    4    5 ar
    10    4   32 1
    11    5    6 ar
    12    5    9 1
    13    6    7 ar
    14    6    8 1
    15    7   33 1
    16    8   34 1
    17    8   35 1
    18    8   36 1
    19    9   10 1
    20   10   11 1
    21   10   37 1
    22   10   38 1
    23   11   12 1
    24   11   39 1
    25   11   40 1
    26   12   13 1
    27   13   18 ar
    28   13   14 ar
    29   14   15 ar
    30   14   41 1
    31   15   16 ar
    32   15   42 1
    33   16   17 ar
    34   16   27 1
    35   17   18 ar
    36   17   43 1
    37   18   19 1
    38   19   20 2
    39   19   44 1
    40   20   26 1
    41   20   21 1
    42   21   22 1
    43   21   23 2
    44   23   24 1
    45   24   25 2
    46   24   26 1
@<TRIPOS>MOLECULE
ZINC35519451
   38    41     0     0     0
SMALL
USER_CHARGES

@<TRIPOS>ATOM
      1 C1         -0.0168    1.3886    0.0097 C.ar      1 <0>        -0.0739
      2 C2          1.1419    2.1067    0.0025 C.ar      1 <0>        -0.1256
      3 C3          2.3729    1.4352   -0.0129 C.ar      1 <0>         0.1991
      4 C4          2.3901    0.0178   -0.0207 C.ar      1 <0>        -0.2235
      5 C5          1.1832   -0.6891   -0.0130 C.ar      1 <0>        -0.0122
      6 C6          0.0021   -0.0041    0.0020 C.ar      1 <0>        -0.0966
      7 Cl1        -1.4962   -0.8808    0.0122 Cl        1 <0>        -0.0960
      8 C7          3.6444   -0.6398   -0.0357 C.ar      1 <0>         0.4780
      9 O1          3.7184   -1.9907   -0.0441 O.3       1 <0>        -0.6559
     10 N1          4.7405    0.0978   -0.0418 N.ar      1 <0>        -0.6232
     11 C8          4.6821    1.4311   -0.0341 C.ar      1 <0>         0.4085
     12 N2          3.5385    2.0950   -0.0200 N.ar      1 <0>        -0.5957
     13 C9          5.9452    2.1957   -0.0410 C.2       1 <0>         0.0202
     14 C10         7.1561    1.5297   -0.0552 C.2       1 <0>         0.0187
     15 C11         8.3605    2.2588   -0.0618 C.2       1 <0>         0.0084
     16 C12         9.6364    1.7196   -0.0815 C.2       1 <0>        -0.1568
     17 C13        10.5282    2.7934   -0.0812 C.2       1 <0>        -0.1766
     18 C14         9.7725    3.9451   -0.0616 C.2       1 <0>         0.0236
     19 O2          8.4715    3.6042   -0.0560 O.3       1 <0>        -0.1389
     20 C15        10.3018    5.3222   -0.0536 C.ar      1 <0>         0.0034
     21 C16        11.2925    5.6881    0.8612 C.ar      1 <0>        -0.0731
     22 C17        11.7829    6.9781    0.8629 C.ar      1 <0>        -0.0342
     23 C18        11.2952    7.9093   -0.0395 C.ar      1 <0>        -0.0893
     24 C19        10.3142    7.5545   -0.9476 C.ar      1 <0>        -0.0981
     25 C20         9.8185    6.2658   -0.9652 C.ar      1 <0>        -0.0127
     26 Cl2         8.5927    5.8205   -2.1110 Cl        1 <0>        -0.0326
     27 Cl3        13.0134    7.4352    1.9989 Cl        1 <0>        -0.0564
     28 C21         5.9156    3.6274   -0.0330 C.1       1 <0>         0.2663
     29 N3          5.8921    4.7632   -0.0267 N.1       1 <0>        -0.4055
     30 H1         -0.9639    1.9075    0.0261 H         1 <0>         0.1265
     31 H2          1.1120    3.1863    0.0082 H         1 <0>         0.1321
     32 H3          1.1854   -1.7691   -0.0192 H         1 <0>         0.1359
     33 H4          7.1784    0.4500   -0.0612 H         1 <0>         0.1903
     34 H5          9.8919    0.6704   -0.0941 H         1 <0>         0.1651
     35 H6         11.6064    2.7328   -0.0940 H         1 <0>         0.1565
     36 H7         11.6734    4.9633    1.5655 H         1 <0>         0.1495
     37 H8         11.6827    8.9174   -0.0335 H         1 <0>         0.1462
     38 H9          9.9382    8.2859   -1.6477 H         1 <0>         0.1485
@<TRIPOS>BOND
     1    1    6 ar
     2    1    2 ar
     3    1   30 1
     4    2    3 ar
     5    2   31 1
     6    3   12 ar
     7    3    4 ar
     8    4    5 ar
     9    4    8 ar
    10    5    6 ar
    11    5   32 1
    12    6    7 1
    13    8    9 1
    14    8   10 ar
    15   10   11 ar
    16   11   12 ar
    17   11   13 1
    18   13   14 2
    19   13   28 1
    20   14   15 1
    21   14   33 1
    22   15   19 1
    23   15   16 2
    24   16   17 1
    25   16   34 1
    26   17   18 2
    27   17   35 1
    28   18   19 1
    29   18   20 1
    30   20   25 ar
    31   20   21 ar
    32   21   22 ar
    33   21   36 1
    34   22   23 ar
    35   22   27 1
    36   23   24 ar
    37   23   37 1
    38   24   25 ar
    39   24   38 1
    40   25   26 1
    41   28   29 3
@<TRIPOS>MOLECULE
ZINC39942051
   79    82     0     0     0
SMALL
USER_CHARGES

@<TRIPOS>ATOM
      1 C1          0.2276    1.2196    0.5723 C.3       1 <0>        -0.1571
      2 C2          0.0912   -0.2297    0.1013 C.3       1 <0>        -0.1092
      3 H1          0.5509   -0.8942    0.8329 H         1 <0>         0.1078
      4 C3          0.7914   -0.3952   -1.2489 C.3       1 <0>        -0.1720
      5 C4          2.2000    0.1965   -1.1689 C.3       1 <0>        -0.1312
      6 C5          2.9479   -0.0886   -2.4728 C.3       1 <0>        -0.1083
      7 C6          4.3565    0.5031   -2.3928 C.3       1 <0>        -0.1037
      8 C7          5.1459    0.1118   -3.6436 C.3       1 <0>        -0.1451
      9 C8          4.2649    2.0278   -2.3038 C.3       1 <0>        -0.1466
     10 C9         -1.3907   -0.5807   -0.0462 C.3       1 <0>        -0.0686
     11 H2         -1.8383    0.0091   -0.8461 H         1 <0>         0.0668
     12 C10        -2.1323   -0.3253    1.2816 C.3       1 <0>        -0.1232
     13 C11        -2.7005   -1.6878    1.7351 C.3       1 <0>        -0.1252
     14 C12        -1.7726   -2.7286    1.0408 C.3       1 <0>        -0.0712
     15 H3         -2.2360   -3.7122    0.9640 H         1 <0>         0.0743
     16 C13        -1.5530   -2.0782   -0.3387 C.3       1 <0>        -0.0485
     17 C14        -0.3737   -2.6565   -1.0866 C.3       1 <0>        -0.1145
     18 C15         0.8942   -2.6169   -0.2345 C.3       1 <0>        -0.1903
     19 C16         0.6462   -3.4286    1.0426 C.3       1 <0>        -0.0677
     20 H4          0.3475   -4.4434    0.7799 H         1 <0>         0.0639
     21 C17        -0.4748   -2.7646    1.8524 C.3       1 <0>        -0.0789
     22 H5         -0.1764   -1.7458    2.0995 H         1 <0>         0.0814
     23 C18        -0.7197   -3.5337    3.1529 C.3       1 <0>        -0.1120
     24 C19         0.5588   -3.5481    3.9914 C.3       1 <0>        -0.1139
     25 C20         1.6666   -2.7986    3.2482 C.3       1 <0>        -0.0766
     26 H6          1.3613   -1.7648    3.0865 H         1 <0>         0.0730
     27 C21         1.9366   -3.4684    1.8655 C.3       1 <0>        -0.0503
     28 C22         3.0443   -2.7349    1.1064 C.3       1 <0>        -0.1041
     29 C23         4.3356   -2.7714    1.9263 C.3       1 <0>        -0.1492
     30 C24         4.1022   -2.0854    3.2739 C.3       1 <0>         0.1255
     31 H7          3.8037   -1.0503    3.1079 H         1 <0>         0.0720
     32 C25         2.9477   -2.8281    4.0846 C.3       1 <0>        -0.1131
     33 O1          5.3082   -2.1167    4.0397 O.3       1 <0>        -0.7777
     34 S1          6.1562   -0.8595    3.9107 S.o2      1 <0>         2.7703
     35 O2          7.4741   -1.1832    4.4347 O.2       1 <0>        -1.0747
     36 O3          6.2014   -0.5237    2.4960 O.2       1 <0>        -1.0926
     37 O4          5.4993    0.1754    4.6940 O.3       1 <0>        -1.0954
     38 C26         2.3513   -4.9233    2.0939 C.3       1 <0>        -0.1463
     39 C27        -2.8074   -2.2841   -1.1902 C.3       1 <0>        -0.1424
     40 H8          1.2833    1.4697    0.6774 H         1 <0>         0.0614
     41 H9         -0.2321    1.8842   -0.1593 H         1 <0>         0.0488
     42 H10        -0.2713    1.3375    1.5342 H         1 <0>         0.0539
     43 H11         0.8559   -1.4546   -1.4973 H         1 <0>         0.1256
     44 H12         0.2222    0.1246   -2.0195 H         1 <0>         0.0514
     45 H13         2.1335    1.2737   -1.0163 H         1 <0>         0.0643
     46 H14         2.7374   -0.2560   -0.3354 H         1 <0>         0.0680
     47 H15         3.0144   -1.1658   -2.6254 H         1 <0>         0.0584
     48 H16         2.4105    0.3639   -3.3063 H         1 <0>         0.0542
     49 H17         4.8629    0.1173   -1.5080 H         1 <0>         0.0787
     50 H18         4.6395    0.4976   -4.5284 H         1 <0>         0.0481
     51 H19         6.1495    0.5334   -3.5866 H         1 <0>         0.0524
     52 H20         5.2112   -0.9744   -3.7070 H         1 <0>         0.0520
     53 H21         3.7025    2.3066   -1.4127 H         1 <0>         0.0577
     54 H22         5.2685    2.4494   -2.2467 H         1 <0>         0.0516
     55 H23         3.7585    2.4136   -3.1885 H         1 <0>         0.0472
     56 H24        -1.4383    0.0580    2.0297 H         1 <0>         0.0696
     57 H25        -2.9443    0.3850    1.1256 H         1 <0>         0.0566
     58 H26        -2.6411   -1.7855    2.8191 H         1 <0>         0.0654
     59 H27        -3.7293   -1.8057    1.3951 H         1 <0>         0.0589
     60 H28        -0.5924   -3.6903   -1.3540 H         1 <0>         0.0524
     61 H29        -0.2105   -2.0799   -1.9971 H         1 <0>         0.0770
     62 H30         1.7234   -3.0537   -0.7910 H         1 <0>         0.0654
     63 H31         1.1278   -1.5848    0.0270 H         1 <0>         0.1420
     64 H32        -1.5174   -3.0492    3.7161 H         1 <0>         0.0595
     65 H33        -1.0118   -4.5575    2.9193 H         1 <0>         0.0564
     66 H34         0.3707   -3.0622    4.9488 H         1 <0>         0.0609
     67 H35         0.8693   -4.5789    4.1624 H         1 <0>         0.0647
     68 H36         3.2102   -3.2220    0.1455 H         1 <0>         0.0721
     69 H37         2.7475   -1.6990    0.9420 H         1 <0>         0.0693
     70 H38         4.6317   -3.8072    2.0921 H         1 <0>         0.0715
     71 H39         5.1248   -2.2499    1.3848 H         1 <0>         0.0933
     72 H40         2.7661   -2.3441    5.0442 H         1 <0>         0.0715
     73 H41         3.2490   -3.8623    4.2509 H         1 <0>         0.0731
     74 H42         2.5185   -5.4087    1.1324 H         1 <0>         0.0501
     75 H43         3.2700   -4.9515    2.6798 H         1 <0>         0.0631
     76 H44         1.5608   -5.4461    2.6323 H         1 <0>         0.0539
     77 H45        -2.6945   -1.7560   -2.1371 H         1 <0>         0.0509
     78 H46        -2.9458   -3.3481   -1.3819 H         1 <0>         0.0501
     79 H47        -3.6755   -1.8947   -0.6584 H         1 <0>         0.0534
@<TRIPOS>BOND
     1    1    2 1
     2    1   40 1
     3    1   41 1
     4    1   42 1
     5    2    3 1
     6    2    4 1
     7    2   10 1
     8    4    5 1
     9    4   43 1
    10    4   44 1
    11    5    6 1
    12    5   45 1
    13    5   46 1
    14    6    7 1
    15    6   47 1
    16    6   48 1
    17    7    8 1
    18    7    9 1
    19    7   49 1
    20    8   50 1
    21    8   51 1
    22    8   52 1
    23    9   53 1
    24    9   54 1
    25    9   55 1
    26   10   11 1
    27   10   16 1
    28   10   12 1
    29   12   13 1
    30   12   56 1
    31   12   57 1
    32   13   14 1
    33   13   58 1
    34   13   59 1
    35   14   15 1
    36   14   21 1
    37   14   16 1
    38   16   17 1
    39   16   39 1
    40   17   18 1
    41   17   60 1
    42   17   61 1
    43   18   19 1
    44   18   62 1
    45   18   63 1
    46   19   20 1
    47   19   27 1
    48   19   21 1
    49   21   22 1
    50   21   23 1
    51   23   24 1
    52   23   64 1
    53   23   65 1
    54   24   25 1
    55   24   66 1
    56   24   67 1
    57   25   26 1
    58   25   32 1
    59   25   27 1
    60   27   28 1
    61   27   38 1
    62   28   29 1
    63   28   68 1
    64   28   69 1
    65   29   30 1
    66   29   70 1
    67   29   71 1
    68   30   31 1
    69   30   32 1
    70   30   33 1
    71   32   72 1
    72   32   73 1
    73   33   34 1
    74   34   35 2
    75   34   36 2
    76   34   37 1
    77   38   74 1
    78   38   75 1
    79   38   76 1
    80   39   77 1
    81   39   78 1
    82   39   79 1
@<TRIPOS>MOLECULE
ZINC47162753
   45    48     0     0     0
SMALL
USER_CHARGES

@<TRIPOS>ATOM
      1 C1         -0.0167    1.3795    0.0096 C.ar      1 <0>        -0.1120
      2 C2          1.1683    2.0938    0.0021 C.ar      1 <0>        -0.1153
      3 C3          2.3774    1.4300   -0.0130 C.ar      1 <0>        -0.1001
      4 C4          2.4037    0.0340   -0.0208 C.ar      1 <0>        -0.0122
      5 C5          1.2041   -0.6806   -0.0131 C.ar      1 <0>        -0.0965
      6 C6          0.0021   -0.0041    0.0020 C.ar      1 <0>        -0.1152
      7 C7          3.6947   -0.6837   -0.0374 C.2       1 <0>        -0.0089
      8 C8          3.8707   -2.0325   -0.0520 C.2       1 <0>        -0.0106
      9 N1          5.1867   -2.2707   -0.0646 N.2       1 <0>        -0.4650
     10 C9          5.8261   -1.1232   -0.0585 C.2       1 <0>         0.2446
     11 O1          4.9252   -0.1249   -0.0471 O.3       1 <0>        -0.1862
     12 C10         7.2938   -0.9568   -0.0684 C.ar      1 <0>         0.0098
     13 C11         7.8547    0.3218   -0.0541 C.ar      1 <0>        -0.1117
     14 C12         9.2261    0.4700   -0.0636 C.ar      1 <0>        -0.0242
     15 C13        10.0455   -0.6447   -0.0872 C.ar      1 <0>        -0.5963
     16 C14         9.4963   -1.9147   -0.1015 C.ar      1 <0>        -0.0245
     17 C15         8.1266   -2.0774   -0.0864 C.ar      1 <0>        -0.0917
     18 S1         11.7962   -0.4462   -0.0997 S.o2      1 <0>         2.6035
     19 O2         12.3351   -1.6296   -0.6727 O.2       1 <0>        -1.0201
     20 O3         12.0547    0.8450   -0.6339 O.2       1 <0>        -1.0208
     21 N2         12.2967   -0.4142    1.4786 N.2       1 <0>        -1.0794
     22 C16        13.6534   -0.2652    1.7785 C.ar      1 <0>         0.2853
     23 C17        14.5827   -0.1380    0.7538 C.ar      1 <0>        -0.2298
     24 C18        15.9226    0.0096    1.0531 C.ar      1 <0>        -0.0487
     25 C19        16.3401    0.0308    2.3725 C.ar      1 <0>        -0.0975
     26 C20        15.4167   -0.0957    3.3951 C.ar      1 <0>        -0.1315
     27 C21        14.0744   -0.2383    3.1016 C.ar      1 <0>        -0.1238
     28 C22        15.8750   -0.0721    4.8305 C.3       1 <0>         0.5100
     29 F1         14.7694   -0.2159    5.6755 F         1 <0>        -0.1790
     30 F2         16.7707   -1.1239    5.0514 F         1 <0>        -0.1770
     31 F3         16.5105    1.1454    5.0972 F         1 <0>        -0.1771
     32 Cl1        18.0255    0.2159    2.7451 Cl        1 <0>        -0.0898
     33 H1         -0.9605    1.9042    0.0260 H         1 <0>         0.1266
     34 H2          1.1465    3.1736    0.0078 H         1 <0>         0.1289
     35 H3          3.3016    1.9888   -0.0192 H         1 <0>         0.1291
     36 H4          1.2174   -1.7605   -0.0194 H         1 <0>         0.1304
     37 H5         -0.9265   -0.5555    0.0083 H         1 <0>         0.1306
     38 H6          3.0884   -2.7771   -0.0530 H         1 <0>         0.1901
     39 H7          7.2163    1.1927   -0.0361 H         1 <0>         0.1355
     40 H8          9.6613    1.4584   -0.0529 H         1 <0>         0.1470
     41 H9         10.1416   -2.7805   -0.1199 H         1 <0>         0.1487
     42 H10         7.6992   -3.0692   -0.0931 H         1 <0>         0.1443
     43 H11        14.2575   -0.1549   -0.2759 H         1 <0>         0.1148
     44 H12        16.6456    0.1082    0.2569 H         1 <0>         0.1268
     45 H13        13.3536   -0.3325    3.9003 H         1 <0>         0.1391
@<TRIPOS>BOND
     1    1    6 ar
     2    1    2 ar
     3    1   33 1
     4    2    3 ar
     5    2   34 1
     6    3    4 ar
     7    3   35 1
     8    4    5 ar
     9    4    7 1
    10    5    6 ar
    11    5   36 1
    12    6   37 1
    13    7   11 1
    14    7    8 2
    15    8    9 1
    16    8   38 1
    17    9   10 2
    18   10   11 1
    19   10   12 1
    20   12   17 ar
    21   12   13 ar
    22   13   14 ar
    23   13   39 1
    24   14   15 ar
    25   14   40 1
    26   15   16 ar
    27   15   18 1
    28   16   17 ar
    29   16   41 1
    30   17   42 1
    31   18   19 2
    32   18   20 2
    33   18   21 1
    34   21   22 1
    35   22   27 ar
    36   22   23 ar
    37   23   24 ar
    38   23   43 1
    39   24   25 ar
    40   24   44 1
    41   25   26 ar
    42   25   32 1
    43   26   27 ar
    44   26   28 1
    45   27   45 1
    46   28   29 1
    47   28   30 1
    48   28   31 1
@<TRIPOS>MOLECULE
ZINC66145138
   40    41     0     0     0
SMALL
USER_CHARGES

@<TRIPOS>ATOM
      1 C1          0.2471   -2.8885    2.4676 C.3       1 <0>        -0.1221
      2 C2          0.2351   -2.0896    1.1898 C.ar      1 <0>        -0.0877
      3 C3          0.4080   -2.7252   -0.0244 C.ar      1 <0>        -0.0861
      4 C4          0.3970   -1.9923   -1.1977 C.ar      1 <0>        -0.0850
      5 C5          0.2130   -0.6218   -1.1577 C.ar      1 <0>        -0.0877
      6 C6          0.0392    0.0177    0.0544 C.ar      1 <0>        -0.0811
      7 C7          0.0447   -0.7161    1.2317 C.ar      1 <0>         0.1037
      8 O1         -0.1308   -0.0895    2.4250 O.3       1 <0>        -0.2986
      9 C8         -1.4525   -0.0870    2.9683 C.3       1 <0>         0.1122
     10 H1         -2.0081   -0.9388    2.5761 H         1 <0>         0.1030
     11 C9         -2.1629    1.2098    2.5755 C.3       1 <0>        -0.1739
     12 C10        -1.3784   -0.1841    4.4703 C.2       1 <0>         0.4526
     13 O2         -0.3054   -0.1577    5.0252 O.2       1 <0>        -0.4575
     14 O3         -2.5050   -0.3000    5.1922 O.3       1 <0>        -0.2862
     15 C11        -2.3997   -0.2798    6.5454 C.ar      1 <0>         0.0929
     16 C12        -2.3041   -1.4738    7.2508 C.ar      1 <0>        -0.1242
     17 C13        -2.1971   -1.4586    8.6232 C.ar      1 <0>        -0.0586
     18 C14        -2.1848   -0.2391    9.3084 C.ar      1 <0>        -0.1155
     19 C15        -2.2812    0.9601    8.5952 C.ar      1 <0>        -0.0454
     20 C16        -2.3822    0.9354    7.2214 C.ar      1 <0>        -0.1029
     21 Br1        -2.5050    2.5558    6.2544 Br        1 <0>        -0.0552
     22 C17        -2.0710   -0.2180   10.7768 C.2       1 <0>         0.5214
     23 O4         -1.9872   -1.2680   11.3989 O.co2     1 <0>        -0.6784
     24 O5         -2.0604    0.8494   11.3742 O.co2     1 <0>        -0.6775
     25 C18        -0.1612    1.5107    0.0974 C.3       1 <0>        -0.1184
     26 Br2         0.6346   -2.8650   -2.8584 Br        1 <0>        -0.0482
     27 H2         -0.7754   -3.1424    2.7469 H         1 <0>         0.0724
     28 H3          0.8209   -3.8032    2.3188 H         1 <0>         0.0748
     29 H4          0.7045   -2.2977    3.2612 H         1 <0>         0.0824
     30 H5          0.5522   -3.7951   -0.0578 H         1 <0>         0.1380
     31 H6          0.2054   -0.0513   -2.0747 H         1 <0>         0.1382
     32 H7         -3.1298    1.2605    3.0761 H         1 <0>         0.0886
     33 H8         -1.5538    2.0628    2.8746 H         1 <0>         0.0781
     34 H9         -2.3113    1.2302    1.4958 H         1 <0>         0.0793
     35 H10        -2.3140   -2.4151    6.7213 H         1 <0>         0.1327
     36 H11        -2.1232   -2.3869    9.1701 H         1 <0>         0.1445
     37 H12        -2.2721    1.9039    9.1200 H         1 <0>         0.1468
     38 H13        -1.2280    1.7339    0.1060 H         1 <0>         0.0771
     39 H14         0.3016    1.9136    0.9982 H         1 <0>         0.0807
     40 H15         0.2978    1.9643   -0.7810 H         1 <0>         0.0707
@<TRIPOS>BOND
     1    1    2 1
     2    1   27 1
     3    1   28 1
     4    1   29 1
     5    2    7 ar
     6    2    3 ar
     7    3    4 ar
     8    3   30 1
     9    4    5 ar
    10    4   26 1
    11    5    6 ar
    12    5   31 1
    13    6    7 ar
    14    6   25 1
    15    7    8 1
    16    8    9 1
    17    9   10 1
    18    9   11 1
    19    9   12 1
    20   11   32 1
    21   11   33 1
    22   11   34 1
    23   12   13 2
    24   12   14 1
    25   14   15 1
    26   15   20 ar
    27   15   16 ar
    28   16   17 ar
    29   16   35 1
    30   17   18 ar
    31   17   36 1
    32   18   19 ar
    33   18   22 1
    34   19   20 ar
    35   19   37 1
    36   20   21 1
    37   22   23 2
    38   22   24 1
    39   25   38 1
    40   25   39 1
    41   25   40 1
@<TRIPOS>MOLECULE
ZINC22608402
   41    44     0     0     0
SMALL
USER_CHARGES
(6R,9R)-9-(3-fluorophenyl)-6-methyl-2-methylsulfanyl-5,6,7,9-tetrahydro-4H-[1,2,4]triazolo[5,1-b]quinazolin-8-one
@<TRIPOS>ATOM
      1 C1          3.4275    7.1295    4.7509 C.3       1 <0>        -0.1509
      2 C2          3.3972    6.3148    3.4563 C.3       1 <0>        -0.0825
      3 H1          4.4116    6.2862    3.0319 H         1 <0>         0.0859
      4 C3          2.4301    6.9615    2.4629 C.3       1 <0>        -0.0968
      5 C4          2.3690    6.1334    1.2010 C.2       1 <0>         0.2591
      6 C5          2.5346    4.7941    1.2423 C.2       1 <0>        -0.3209
      7 C6          2.4536    3.9349   -0.0002 C.3       1 <0>         0.2773
      8 H2          3.3108    3.2470   -0.0449 H         1 <0>         0.1160
      9 N1          2.5102    4.7746   -1.1900 N.pl3     1 <0>        -0.3844
     10 C7          2.3547    6.1189   -1.1654 C.2       1 <0>         0.5061
     11 N2          2.4520    6.5628   -2.3889 N.2       1 <0>        -0.5453
     12 C8          2.6758    5.5357   -3.2215 C.2       1 <0>         0.2163
     13 N3          2.7202    4.4208   -2.5243 N.2       1 <0>        -0.2649
     14 S1          2.8769    5.6592   -4.9676 S.3       1 <0>         0.0217
     15 C9          2.7103    7.4339   -5.3041 C.3       1 <0>        -0.1454
     16 N4          2.1349    6.7985    0.0214 N.pl3     1 <0>        -0.6239
     17 C10         1.1579    3.1654    0.0075 C.ar      1 <0>        -0.0673
     18 C11         1.1751    1.7829    0.0004 C.ar      1 <0>        -0.0891
     19 C12        -0.0126    1.0758    0.0080 C.ar      1 <0>        -0.0883
     20 C13        -1.2190    1.7503    0.0173 C.ar      1 <0>        -0.1432
     21 C14        -1.2374    3.1345    0.0298 C.ar      1 <0>         0.0955
     22 C15        -0.0469    3.8418    0.0222 C.ar      1 <0>        -0.1329
     23 F1         -2.4160    3.7948    0.0441 F         1 <0>        -0.1387
     24 C16         2.7937    4.1364    2.4586 C.2       1 <0>         0.4122
     25 O1          2.9294    2.9287    2.4635 O.2       1 <0>        -0.4652
     26 C17         2.9066    4.8936    3.7522 C.3       1 <0>        -0.1621
     27 H3          3.7801    8.1488    4.5345 H         1 <0>         0.0633
     28 H4          4.1088    6.6507    5.4696 H         1 <0>         0.0669
     29 H5          2.4154    7.1748    5.1794 H         1 <0>         0.0624
     30 H6          1.4273    7.0180    2.9114 H         1 <0>         0.1103
     31 H7          2.7798    7.9752    2.2177 H         1 <0>         0.1008
     32 H8          2.8224    7.6145   -6.3834 H         1 <0>         0.1153
     33 H9          3.4892    7.9855   -4.7572 H         1 <0>         0.0898
     34 H10         1.7184    7.7778   -4.9758 H         1 <0>         0.0896
     35 H11         1.7832    7.8406    0.0380 H         1 <0>         0.4699
     36 H12         2.1172    1.2550   -0.0114 H         1 <0>         0.1348
     37 H13         0.0021   -0.0041    0.0020 H         1 <0>         0.1392
     38 H14        -2.1469    1.1976    0.0191 H         1 <0>         0.1388
     39 H15        -0.0601    4.9217    0.0281 H         1 <0>         0.1211
     40 H16         3.6238    4.3890    4.4163 H         1 <0>         0.1038
     41 H17         1.9229    4.9399    4.2423 H         1 <0>         0.1060
@<TRIPOS>BOND
     1    1    2 1
     2    1   27 1
     3    1   28 1
     4    1   29 1
     5    2    3 1
     6    2   26 1
     7    2    4 1
     8    4    5 1
     9    4   30 1
    10    4   31 1
    11    5   16 1
    12    5    6 2
    13    6    7 1
    14    6   24 1
    15    7    8 1
    16    7    9 1
    17    7   17 1
    18    9   13 1
    19    9   10 1
    20   10   11 2
    21   10   16 1
    22   11   12 1
    23   12   13 2
    24   12   14 1
    25   14   15 1
    26   15   32 1
    27   15   33 1
    28   15   34 1
    29   16   35 1
    30   17   22 ar
    31   17   18 ar
    32   18   19 ar
    33   18   36 1
    34   19   20 ar
    35   19   37 1
    36   20   21 ar
    37   20   38 1
    38   21   22 ar
    39   21   23 1
    40   22   39 1
    41   24   25 2
    42   24   26 1
    43   26   40 1
    44   26   41 1
@<TRIPOS>MOLECULE
ZINC39479618
   38    40     0     0     0
SMALL
USER_CHARGES

@<TRIPOS>ATOM
      1 C1         -0.0178    1.4608    0.0101 C.3       1 <0>         0.0897
      2 N1          0.0021   -0.0041    0.0020 N.pl3     1 <0>        -0.5525
      3 C2         -1.2479   -0.5883    0.0055 C.ar      1 <0>         0.2086
      4 C3         -2.2575    0.1216    0.6218 C.ar      1 <0>        -0.1201
      5 C4         -3.5683    0.0295    0.3293 C.ar      1 <0>        -0.0477
      6 C5         -3.9471   -1.0892   -0.4344 C.ar      1 <0>        -0.0927
      7 C6         -2.9761   -2.0001   -0.8373 C.ar      1 <0>        -0.1150
      8 C7         -1.6204   -1.7677   -0.6315 C.ar      1 <0>        -0.1010
      9 S1         -0.4099   -2.9328   -1.1625 S.3       1 <0>        -0.0757
     10 C8         -1.3837   -4.2648   -1.9163 C.3       1 <0>        -0.1551
     11 S2         -5.6351   -1.3348   -0.8759 S.3       1 <0>        -0.1000
     12 C9         -5.6183   -2.8744   -1.8351 C.3       1 <0>        -0.1482
     13 C10        -1.7674    0.5906    2.0305 C.3       1 <0>         0.0013
     14 C11        -0.3758   -0.0322    1.9925 C.2       1 <0>         0.4259
     15 N2          0.7561    0.5874    1.9033 N.2       1 <0>        -0.5748
     16 C12         1.7541   -0.1355    1.3224 C.ar      1 <0>        -0.0031
     17 C13         1.2563   -0.5492   -0.0129 C.ar      1 <0>         0.4038
     18 N3          2.0157   -1.2374   -0.7754 N.ar      1 <0>        -0.4728
     19 C14         3.2368   -1.5853   -0.3809 C.ar      1 <0>         0.3144
     20 N4          3.7219   -1.2441    0.7972 N.ar      1 <0>        -0.4862
     21 C15         3.0008   -0.5224    1.6773 C.ar      1 <0>         0.1771
     22 Cl1         3.6556   -0.0862    3.2248 Cl        1 <0>        -0.0081
     23 O1         -0.3190   -1.3790    2.0598 O.3       1 <0>        -0.5122
     24 H1          1.0048    1.8381    0.0023 H         1 <0>         0.0818
     25 H2         -0.5450    1.8219   -0.8730 H         1 <0>         0.0616
     26 H3         -0.5280    1.8123    0.9069 H         1 <0>         0.0995
     27 H4         -4.2838    0.7677    0.6603 H         1 <0>         0.1548
     28 H5         -3.2838   -2.9138   -1.3239 H         1 <0>         0.1249
     29 H6         -0.7136   -5.0438   -2.2799 H         1 <0>         0.1116
     30 H7         -2.0604   -4.6857   -1.1726 H         1 <0>         0.0811
     31 H8         -1.9623   -3.8653   -2.7492 H         1 <0>         0.0819
     32 H9         -4.9789   -2.7509   -2.7092 H         1 <0>         0.0827
     33 H10        -5.2339   -3.6844   -1.2153 H         1 <0>         0.0829
     34 H11        -6.6319   -3.1129   -2.1572 H         1 <0>         0.1129
     35 H12        -1.7200    1.6774    2.0987 H         1 <0>         0.1284
     36 H13        -2.3759    0.1672    2.8296 H         1 <0>         0.1292
     37 H14         3.8537   -2.1679   -1.0491 H         1 <0>         0.2172
     38 H15         0.5791   -1.7366    2.0330 H         1 <0>         0.3938
@<TRIPOS>BOND
     1    1    2 1
     2    1   24 1
     3    1   25 1
     4    1   26 1
     5    2   17 1
     6    2    3 1
     7    3    8 ar
     8    3    4 ar
     9    4    5 ar
    10    4   13 1
    11    5    6 ar
    12    5   27 1
    13    6    7 ar
    14    6   11 1
    15    7    8 ar
    16    7   28 1
    17    8    9 1
    18    9   10 1
    19   10   29 1
    20   10   30 1
    21   10   31 1
    22   11   12 1
    23   12   32 1
    24   12   33 1
    25   12   34 1
    26   13   14 1
    27   13   35 1
    28   13   36 1
    29   14   15 2
    30   14   23 1
    31   15   16 1
    32   16   21 ar
    33   16   17 ar
    34   17   18 ar
    35   18   19 ar
    36   19   20 ar
    37   19   37 1
    38   20   21 ar
    39   21   22 1
    40   23   38 1
@<TRIPOS>MOLECULE
ZINC48236463
   45    48     0     0     0
SMALL
USER_CHARGES

@<TRIPOS>ATOM
      1 C1          3.0363    0.0371   -1.0457 C.3       1 <0>        -0.0741
      2 C2          1.9533   -0.9219   -0.6233 C.2       1 <0>         0.0819
      3 C3          0.6816   -1.0272   -1.1975 C.2       1 <0>        -0.2647
      4 C4          0.0073   -1.9995   -0.5411 C.2       1 <0>         0.0901
      5 N1          0.8251   -2.4928    0.4164 N.pl3     1 <0>        -0.3242
      6 N2          2.0421   -1.8034    0.3399 N.2       1 <0>        -0.2917
      7 C5          0.5122   -3.5166    1.3214 C.ar      1 <0>         0.1764
      8 C6         -0.3238   -4.5559    0.9335 C.ar      1 <0>        -0.1544
      9 C7         -0.6323   -5.5655    1.8245 C.ar      1 <0>        -0.0758
     10 C8         -0.1109   -5.5449    3.1040 C.ar      1 <0>        -0.1393
     11 C9          0.7252   -4.5082    3.4980 C.ar      1 <0>         0.1850
     12 C10         1.0418   -3.4959    2.6031 C.ar      1 <0>        -0.1472
     13 N3          1.2522   -4.4874    4.7943 N.am      1 <0>        -0.6814
     14 C11         1.4058   -5.6387    5.4778 C.2       1 <0>         0.7144
     15 O1          0.9378   -6.6723    5.0408 O.2       1 <0>        -0.5632
     16 N4          2.0782   -5.6443    6.6459 N.am      1 <0>        -0.6227
     17 C12         2.3071   -6.9045    7.3683 C.3       1 <0>         0.1345
     18 C13         3.8191   -7.1764    7.3970 C.3       1 <0>        -0.0606
     19 C14         4.5294   -5.8997    7.7099 C.2       1 <0>        -0.1358
     20 C15         4.0396   -4.6320    7.6420 C.2       1 <0>        -0.1485
     21 C16         4.9169   -3.6032    7.9813 C.2       1 <0>        -0.1473
     22 C17         6.1831   -3.8912    8.3601 C.2       1 <0>        -0.1713
     23 S1          6.2023   -5.6744    8.2540 S.3       1 <0>         0.0520
     24 C18         2.5980   -4.3923    7.2122 C.3       1 <0>         0.1732
     25 C19        -1.4020   -2.4512   -0.8255 C.3       1 <0>        -0.1002
     26 H1          3.6524   -0.4269   -1.8159 H         1 <0>         0.0793
     27 H2          2.5829    0.9458   -1.4415 H         1 <0>         0.0803
     28 H3          3.6571    0.2860   -0.1850 H         1 <0>         0.0734
     29 H4          0.3047   -0.4364   -2.0193 H         1 <0>         0.1527
     30 H5         -0.7334   -4.5745   -0.0657 H         1 <0>         0.1334
     31 H6         -1.2825   -6.3725    1.5205 H         1 <0>         0.1380
     32 H7         -0.3542   -6.3354    3.7985 H         1 <0>         0.1669
     33 H8          1.6956   -2.6912    2.9055 H         1 <0>         0.1342
     34 H9          1.5068   -3.6443    5.2008 H         1 <0>         0.4082
     35 H10         1.9300   -6.8176    8.3873 H         1 <0>         0.0809
     36 H11         1.7969   -7.7199    6.8555 H         1 <0>         0.1101
     37 H12         4.0430   -7.9170    8.1649 H         1 <0>         0.0976
     38 H13         4.1428   -7.5459    6.4240 H         1 <0>         0.0908
     39 H14         4.5856   -2.5760    7.9416 H         1 <0>         0.1340
     40 H15         6.9764   -3.2182    8.6504 H         1 <0>         0.1888
     41 H16         2.5642   -3.6047    6.4594 H         1 <0>         0.0867
     42 H17         2.0015   -4.1028    8.0773 H         1 <0>         0.0888
     43 H18        -1.3881   -3.2209   -1.5972 H         1 <0>         0.0847
     44 H19        -1.8441   -2.8570    0.0844 H         1 <0>         0.0777
     45 H20        -1.9931   -1.6025   -1.1694 H         1 <0>         0.0881
@<TRIPOS>BOND
     1    1    2 1
     2    1   26 1
     3    1   27 1
     4    1   28 1
     5    2    6 2
     6    2    3 1
     7    3    4 2
     8    3   29 1
     9    4    5 1
    10    4   25 1
    11    5    6 1
    12    5    7 1
    13    7   12 ar
    14    7    8 ar
    15    8    9 ar
    16    8   30 1
    17    9   10 ar
    18    9   31 1
    19   10   11 ar
    20   10   32 1
    21   11   12 ar
    22   11   13 1
    23   12   33 1
    24   13   14 am
    25   13   34 1
    26   14   15 2
    27   14   16 am
    28   16   24 1
    29   16   17 1
    30   17   18 1
    31   17   35 1
    32   17   36 1
    33   18   19 1
    34   18   37 1
    35   18   38 1
    36   19   23 1
    37   19   20 2
    38   20   21 1
    39   20   24 1
    40   21   22 2
    41   21   39 1
    42   22   23 1
    43   22   40 1
    44   24   41 1
    45   24   42 1
    46   25   43 1
    47   25   44 1
    48   25   45 1
@<TRIPOS>MOLECULE
ZINC44919175
   40    43     0     0     0
SMALL
USER_CHARGES

@<TRIPOS>ATOM
      1 C1          0.4674    1.7467   -0.2707 C.3       1 <0>        -0.1086
      2 C2          0.5229    0.2466   -0.1380 C.2       1 <0>         0.1234
      3 C3          0.2100   -0.6757   -1.1536 C.2       1 <0>        -0.2654
      4 C4          0.3801   -1.9334   -0.6411 C.2       1 <0>         0.3827
      5 N1          0.7985   -1.7728    0.6673 N.pl3     1 <0>        -0.3247
      6 N2          0.8739   -0.4057    0.9341 N.2       1 <0>        -0.2658
      7 C5          1.0980   -2.8008    1.5643 C.ar      1 <0>         0.3737
      8 C6          1.9657   -2.5597    2.6230 C.ar      1 <0>        -0.1632
      9 C7          2.2536   -3.5869    3.5047 C.ar      1 <0>        -0.0565
     10 C8          1.6609   -4.8246    3.2956 C.ar      1 <0>        -0.1834
     11 C9          0.8082   -4.9930    2.2223 C.ar      1 <0>         0.1239
     12 N3          0.5487   -3.9937    1.4014 N.ar      1 <0>        -0.4740
     13 N4          0.2050   -3.1523   -1.1765 N.2       1 <0>        -0.6083
     14 C10        -0.1538   -3.6166   -2.2834 C.2       1 <0>         0.4690
     15 C11        -0.4966   -2.9160   -3.5388 C.3       1 <0>        -0.1138
     16 S1         -1.3964   -1.3827   -3.2697 S.3       1 <0>        -0.1540
     17 C12        -0.2199   -0.2483   -2.5244 C.3       1 <0>         0.0522
     18 H1          0.6600   -0.1834   -3.1646 H         1 <0>         0.1052
     19 C13        -0.8520    1.1166   -2.4323 C.ar      1 <0>        -0.0271
     20 C14        -2.0645    1.2744   -1.7867 C.ar      1 <0>        -0.1119
     21 C15        -2.6455    2.5257   -1.7013 C.ar      1 <0>        -0.0850
     22 C16        -2.0152    3.6206   -2.2618 C.ar      1 <0>        -0.1472
     23 C17        -0.8012    3.4638   -2.9085 C.ar      1 <0>         0.1042
     24 C18        -0.2171    2.2107   -2.9880 C.ar      1 <0>        -0.1416
     25 F1         -0.1844    4.5333   -3.4571 F         1 <0>        -0.1347
     26 O1         -0.2401   -4.9614   -2.3379 O.3       1 <0>        -0.4718
     27 H2          1.3704    2.1012   -0.7678 H         1 <0>         0.0821
     28 H3         -0.4057    2.0273   -0.8599 H         1 <0>         0.1049
     29 H4          0.3973    2.1968    0.7196 H         1 <0>         0.0759
     30 H5          2.4095   -1.5841    2.7555 H         1 <0>         0.1439
     31 H6          2.9244   -3.4292    4.3362 H         1 <0>         0.1437
     32 H7          1.8648   -5.6473    3.9649 H         1 <0>         0.1417
     33 H8          0.3446   -5.9541    2.0554 H         1 <0>         0.1650
     34 H9          0.4240   -2.6921   -4.0776 H         1 <0>         0.1262
     35 H10        -1.1074   -3.5773   -4.1534 H         1 <0>         0.1525
     36 H11        -2.5581    0.4193   -1.3490 H         1 <0>         0.1349
     37 H12        -3.5926    2.6478   -1.1968 H         1 <0>         0.1389
     38 H13        -2.4697    4.5981   -2.1957 H         1 <0>         0.1401
     39 H14         0.7321    2.0879   -3.4884 H         1 <0>         0.1406
     40 H15        -0.0124   -5.4040   -1.5088 H         1 <0>         0.4123
@<TRIPOS>BOND
     1    1    2 1
     2    1   27 1
     3    1   28 1
     4    1   29 1
     5    2    6 2
     6    2    3 1
     7    3   17 1
     8    3    4 2
     9    4    5 1
    10    4   13 1
    11    5    6 1
    12    5    7 1
    13    7   12 ar
    14    7    8 ar
    15    8    9 ar
    16    8   30 1
    17    9   10 ar
    18    9   31 1
    19   10   11 ar
    20   10   32 1
    21   11   12 ar
    22   11   33 1
    23   13   14 2
    24   14   15 1
    25   14   26 1
    26   15   16 1
    27   15   34 1
    28   15   35 1
    29   16   17 1
    30   17   18 1
    31   17   19 1
    32   19   24 ar
    33   19   20 ar
    34   20   21 ar
    35   20   36 1
    36   21   22 ar
    37   21   37 1
    38   22   23 ar
    39   22   38 1
    40   23   24 ar
    41   23   25 1
    42   24   39 1
    43   26   40 1
@<TRIPOS>MOLECULE
ZINC67041995
   50    51     0     0     0
SMALL
USER_CHARGES

@<TRIPOS>ATOM
      1 C1         -1.2640    3.7139   -0.1882 C.3       1 <0>        -0.1045
      2 C2         -0.7809    2.2870   -0.2283 C.2       1 <0>        -0.0935
      3 C3         -0.6115    1.6376   -1.4367 C.2       1 <0>        -0.1606
      4 C4         -0.1755    0.3541   -1.4377 C.2       1 <0>        -0.1593
      5 S1          0.0100    0.0258    0.3073 S.3       1 <0>         0.0484
      6 C5         -0.5008    1.6231    0.9197 C.2       1 <0>        -0.1823
      7 C6         -0.5969    2.1071    2.3436 C.3       1 <0>         0.2276
      8 N1         -1.9347    1.8206    2.8675 N.am      1 <0>        -0.7429
      9 C7         -2.2522    2.1672    4.1307 C.2       1 <0>         0.7106
     10 O1         -1.4283    2.7176    4.8354 O.2       1 <0>        -0.5781
     11 N2         -3.4829    1.9037    4.6126 N.am      1 <0>        -0.6129
     12 C8         -3.8531    2.2607    5.9374 C.3       1 <0>         0.1336
     13 C9         -3.4342    1.2257    7.0322 C.3       1 <0>        -0.1504
     14 C10        -3.6287   -0.2005    6.4214 C.3       1 <0>         0.1147
     15 N3         -4.7737   -0.3381    5.5911 N.am      1 <0>        -0.5959
     16 C11        -4.5687   -0.1885    4.1275 C.3       1 <0>         0.0681
     17 C12        -4.5145    1.2328    3.7804 C.3       1 <0>         0.0708
     18 C13        -5.9917   -0.5935    6.1086 C.2       1 <0>         0.5262
     19 O2         -6.1215   -0.7529    7.3039 O.2       1 <0>        -0.5275
     20 C14        -7.1924   -0.6808    5.2021 C.3       1 <0>        -0.0852
     21 C15        -8.4655   -0.7532    6.0475 C.3       1 <0>        -0.1285
     22 C16        -7.2454    0.5576    4.3052 C.3       1 <0>        -0.1614
     23 C17        -7.0851   -1.9356    4.3332 C.3       1 <0>        -0.1504
     24 H1         -0.4085    4.3883   -0.2246 H         1 <0>         0.0733
     25 H2         -1.9120    3.9023   -1.0442 H         1 <0>         0.0680
     26 H3         -1.8211    3.8831    0.7334 H         1 <0>         0.0676
     27 H4         -0.8236    2.1450   -2.3661 H         1 <0>         0.1364
     28 H5          0.0109   -0.3002   -2.2765 H         1 <0>         0.1881
     29 H6          0.1489    1.5958    2.9523 H         1 <0>         0.0822
     30 H7         -0.4168    3.1817    2.3750 H         1 <0>         0.0902
     31 H8         -2.5919    1.3815    2.3053 H         1 <0>         0.3963
     32 H9         -3.3952    3.2204    6.1768 H         1 <0>         0.0739
     33 H10        -4.9358    2.3810    5.9726 H         1 <0>         0.0686
     34 H11        -2.3887    1.3741    7.3023 H         1 <0>         0.0804
     35 H12        -4.0658    1.3413    7.9130 H         1 <0>         0.0784
     36 H13        -2.7446   -0.4476    5.8336 H         1 <0>         0.0684
     37 H14        -3.7067   -0.9180    7.2383 H         1 <0>         0.0720
     38 H15        -3.6331   -0.6690    3.8412 H         1 <0>         0.0828
     39 H16        -5.3953   -0.6593    3.5953 H         1 <0>         0.1140
     40 H17        -5.4858    1.6907    3.9676 H         1 <0>         0.1019
     41 H18        -4.2588    1.3434    2.7266 H         1 <0>         0.0885
     42 H19        -8.5419    0.1407    6.6665 H         1 <0>         0.0607
     43 H20        -9.3340   -0.8164    5.3918 H         1 <0>         0.0638
     44 H21        -8.4278   -1.6355    6.6865 H         1 <0>         0.0648
     45 H22        -6.5276    0.4485    3.4922 H         1 <0>         0.0739
     46 H23        -8.2485    0.6645    3.8924 H         1 <0>         0.0723
     47 H24        -6.9979    1.4421    4.8921 H         1 <0>         0.0629
     48 H25        -7.2458   -2.8196    4.9502 H         1 <0>         0.0657
     49 H26        -7.8397   -1.8989    3.5474 H         1 <0>         0.0726
     50 H27        -6.0936   -1.9820    3.8829 H         1 <0>         0.0657
@<TRIPOS>BOND
     1    1    2 1
     2    1   24 1
     3    1   25 1
     4    1   26 1
     5    2    6 2
     6    2    3 1
     7    3    4 2
     8    3   27 1
     9    4    5 1
    10    4   28 1
    11    5    6 1
    12    6    7 1
    13    7    8 1
    14    7   29 1
    15    7   30 1
    16    8    9 am
    17    8   31 1
    18    9   10 2
    19    9   11 am
    20   11   17 1
    21   11   12 1
    22   12   13 1
    23   12   32 1
    24   12   33 1
    25   13   14 1
    26   13   34 1
    27   13   35 1
    28   14   15 1
    29   14   36 1
    30   14   37 1
    31   15   16 1
    32   15   18 am
    33   16   17 1
    34   16   38 1
    35   16   39 1
    36   17   40 1
    37   17   41 1
    38   18   19 2
    39   18   20 1
    40   20   21 1
    41   20   22 1
    42   20   23 1
    43   21   42 1
    44   21   43 1
    45   21   44 1
    46   22   45 1
    47   22   46 1
    48   22   47 1
    49   23   48 1
    50   23   49 1
    51   23   50 1
@<TRIPOS>MOLECULE
ZINC36826375
   44    46     0     0     0
SMALL
USER_CHARGES

@<TRIPOS>ATOM
      1 C1         -0.0167    1.3779    0.0096 C.ar      1 <0>        -0.0729
      2 C2          1.1692    2.0897    0.0021 C.ar      1 <0>        -0.1026
      3 C3          2.3812    1.4171   -0.0131 C.ar      1 <0>         0.1611
      4 C4          2.4001    0.0221   -0.0208 C.ar      1 <0>         0.1913
      5 C5          1.2068   -0.6833   -0.0132 C.ar      1 <0>        -0.0955
      6 C6          0.0021   -0.0041    0.0020 C.ar      1 <0>        -0.6323
      7 S1         -1.5132   -0.9032    0.0123 S.o2      1 <0>         2.7011
      8 O1         -1.2216   -2.1844    0.5534 O.2       1 <0>        -0.9647
      9 O2         -2.4924   -0.0424    0.5775 O.2       1 <0>        -0.9608
     10 N1         -1.9500   -1.1446   -1.5667 N.pl3     1 <0>        -1.2484
     11 N2          3.6209   -0.6635   -0.0366 N.pl3     1 <0>        -0.8713
     12 N3          3.5829    2.1356   -0.0212 N.pl3     1 <0>        -0.6744
     13 C7          4.2160    2.5350   -1.2875 C.3       1 <0>         0.1432
     14 C8          5.6686    2.0511   -1.2965 C.3       1 <0>        -0.1373
     15 C9          6.3879    2.5533   -0.0409 C.3       1 <0>        -0.1131
     16 C10         5.6869    1.9947    1.1964 C.3       1 <0>        -0.0992
     17 H1          5.6802    0.9058    1.1477 H         1 <0>         0.0676
     18 C11         4.2418    2.5159    1.2329 C.3       1 <0>         0.1788
     19 H2          4.2461    3.6018    1.3271 H         1 <0>         0.0606
     20 C12         3.5167    1.9004    2.4287 C.3       1 <0>        -0.1247
     21 C13         4.2287    2.3247    3.7165 C.3       1 <0>        -0.1163
     22 C14         5.6813    1.8478    3.6883 C.3       1 <0>        -0.1209
     23 C15         6.4027    2.4410    2.4705 C.3       1 <0>        -0.1135
     24 H3         -0.9600    1.9035    0.0260 H         1 <0>         0.1394
     25 H4          1.1509    3.1695    0.0078 H         1 <0>         0.1317
     26 H5          1.2178   -1.7632   -0.0195 H         1 <0>         0.1389
     27 H6         -2.4592   -1.9322   -1.8141 H         1 <0>         0.4211
     28 H7         -1.6967   -0.4982   -2.2443 H         1 <0>         0.4173
     29 H8          4.4550   -0.1685   -0.0422 H         1 <0>         0.4013
     30 H9          3.6324   -1.6334   -0.0419 H         1 <0>         0.3983
     31 H10         3.6771    2.0860   -2.1218 H         1 <0>         0.0685
     32 H11         4.1930    3.6209   -1.3797 H         1 <0>         0.0537
     33 H12         5.6877    0.9614   -1.3141 H         1 <0>         0.0597
     34 H13         6.1737    2.4363   -2.1823 H         1 <0>         0.0713
     35 H14         7.4243    2.2163   -0.0555 H         1 <0>         0.0631
     36 H15         6.3585    3.6426   -0.0154 H         1 <0>         0.0643
     37 H16         2.4850    2.2514    2.4497 H         1 <0>         0.0672
     38 H17         3.5320    0.8137    2.3446 H         1 <0>         0.0671
     39 H18         4.2058    3.4111    3.8019 H         1 <0>         0.0634
     40 H19         3.7195    1.8844    4.5738 H         1 <0>         0.0653
     41 H20         6.1847    2.1661    4.6012 H         1 <0>         0.0641
     42 H21         5.7040    0.7599    3.6241 H         1 <0>         0.0599
     43 H22         7.4358    2.0942    2.4489 H         1 <0>         0.0649
     44 H23         6.3830    3.5288    2.5378 H         1 <0>         0.0638
@<TRIPOS>BOND
     1    1    6 ar
     2    1    2 ar
     3    1   24 1
     4    2    3 ar
     5    2   25 1
     6    3    4 ar
     7    3   12 1
     8    4    5 ar
     9    4   11 1
    10    5    6 ar
    11    5   26 1
    12    6    7 1
    13    7    8 2
    14    7    9 2
    15    7   10 1
    16   10   27 1
    17   10   28 1
    18   11   29 1
    19   11   30 1
    20   12   18 1
    21   12   13 1
    22   13   14 1
    23   13   31 1
    24   13   32 1
    25   14   15 1
    26   14   33 1
    27   14   34 1
    28   15   16 1
    29   15   35 1
    30   15   36 1
    31   16   17 1
    32   16   23 1
    33   16   18 1
    34   18   19 1
    35   18   20 1
    36   20   21 1
    37   20   37 1
    38   20   38 1
    39   21   22 1
    40   21   39 1
    41   21   40 1
    42   22   23 1
    43   22   41 1
    44   22   42 1
    45   23   43 1
    46   23   44 1
@<TRIPOS>MOLECULE
ZINC43395925
   39    41     0     0     0
SMALL
USER_CHARGES

@<TRIPOS>ATOM
      1 C1         -2.3006   -0.6628   -1.5220 C.3       1 <0>        -0.1108
      2 C2         -1.0767   -1.0255   -0.7209 C.ar      1 <0>         0.1684
      3 C3          0.1767   -0.7113   -1.2160 C.ar      1 <0>        -0.1874
      4 C4          1.3017   -1.0432   -0.4826 C.ar      1 <0>        -0.0356
      5 C5          1.1276   -1.6913    0.7457 C.ar      1 <0>        -0.2055
      6 C6         -0.1776   -1.9767    1.1811 C.ar      1 <0>         0.4483
      7 N1         -1.2202   -1.6316    0.4412 N.ar      1 <0>        -0.4971
      8 N2         -0.3744   -2.6167    2.3909 N.pl3     1 <0>        -0.6476
      9 C7         -0.6320   -1.8575    3.6258 C.3       1 <0>         0.1622
     10 C8         -2.0389   -2.2079    4.1077 C.3       1 <0>        -0.0909
     11 C9         -2.2541   -3.6983    4.0957 C.ar      1 <0>        -0.1364
     12 C10        -1.4848   -4.5584    3.3465 C.ar      1 <0>        -0.0435
     13 C11        -1.7485   -5.9215    3.3699 C.ar      1 <0>        -0.1771
     14 C12        -2.7708   -6.4277    4.1472 C.ar      1 <0>        -0.0719
     15 C13        -3.5415   -5.5722    4.9094 C.ar      1 <0>        -0.2038
     16 C14        -3.2860   -4.2098    4.8846 C.ar      1 <0>         0.2149
     17 N3         -4.0658   -3.3435    5.6543 N.pl3     1 <0>        -0.8791
     18 C15        -0.3412   -4.0794    2.4944 C.3       1 <0>         0.1947
     19 C16         2.2923   -2.0680    1.5674 C.2       1 <0>         0.5672
     20 O1          2.1273   -2.5359    2.6776 O.2       1 <0>        -0.5132
     21 N4          3.5398   -1.8937    1.0881 N.am      1 <0>        -0.8551
     22 H1         -2.6336    0.3371   -1.2439 H         1 <0>         0.0832
     23 H2         -2.0584   -0.6827   -2.5845 H         1 <0>         0.0793
     24 H3         -3.0949   -1.3805   -1.3169 H         1 <0>         0.0805
     25 H4          0.2758   -0.2110   -2.1680 H         1 <0>         0.1426
     26 H5          2.2901   -0.8083   -0.8491 H         1 <0>         0.1385
     27 H6          0.0979   -2.1329    4.3870 H         1 <0>         0.0698
     28 H7         -0.5676   -0.7887    3.4218 H         1 <0>         0.0654
     29 H8         -2.1734   -1.8345    5.1229 H         1 <0>         0.0688
     30 H9         -2.7704   -1.7348    3.4527 H         1 <0>         0.0726
     31 H10        -1.1474   -6.5925    2.7742 H         1 <0>         0.1163
     32 H11        -2.9671   -7.4896    4.1594 H         1 <0>         0.1201
     33 H12        -4.3404   -5.9628    5.5222 H         1 <0>         0.1173
     34 H13        -3.8896   -2.3897    5.6395 H         1 <0>         0.3966
     35 H14        -4.7836   -3.6956    6.2035 H         1 <0>         0.3967
     36 H15        -0.4240   -4.5155    1.4988 H         1 <0>         0.0710
     37 H16         0.6000   -4.3896    2.9484 H         1 <0>         0.0768
     38 H17         3.6714   -1.5205    0.2025 H         1 <0>         0.3978
     39 H18         4.3061   -2.1416    1.6287 H         1 <0>         0.4060
@<TRIPOS>BOND
     1    1    2 1
     2    1   22 1
     3    1   23 1
     4    1   24 1
     5    2    7 ar
     6    2    3 ar
     7    3    4 ar
     8    3   25 1
     9    4    5 ar
    10    4   26 1
    11    5    6 ar
    12    5   19 1
    13    6    7 ar
    14    6    8 1
    15    8   18 1
    16    8    9 1
    17    9   10 1
    18    9   27 1
    19    9   28 1
    20   10   11 1
    21   10   29 1
    22   10   30 1
    23   11   16 ar
    24   11   12 ar
    25   12   13 ar
    26   12   18 1
    27   13   14 ar
    28   13   31 1
    29   14   15 ar
    30   14   32 1
    31   15   16 ar
    32   15   33 1
    33   16   17 1
    34   17   34 1
    35   17   35 1
    36   18   36 1
    37   18   37 1
    38   19   20 2
    39   19   21 am
    40   21   38 1
    41   21   39 1
@<TRIPOS>MOLECULE
ZINC50436402
   42    44     0     0     0
SMALL
USER_CHARGES

@<TRIPOS>ATOM
      1 C1         -1.2474    1.1892    0.1793 C.3       1 <0>        -0.1190
      2 C2         -0.5724   -0.1548    0.0835 C.ar      1 <0>        -0.0933
      3 C3         -0.5601   -0.8355   -1.1195 C.ar      1 <0>        -0.1024
      4 C4          0.0559   -2.0669   -1.2144 C.ar      1 <0>        -0.1050
      5 C5          0.6692   -2.6284   -0.0941 C.ar      1 <0>        -0.0399
      6 C6          0.6573   -1.9423    1.1187 C.ar      1 <0>        -0.0702
      7 C7          0.0406   -0.7033    1.2033 C.ar      1 <0>         0.1410
      8 N1          0.0310   -0.0077    2.4176 N.am      1 <0>        -0.6731
      9 C8         -0.0561   -0.6834    3.5805 C.2       1 <0>         0.5223
     10 O1         -0.0451   -1.8962    3.5795 O.2       1 <0>        -0.5060
     11 C9         -0.1671    0.0680    4.8821 C.3       1 <0>        -0.1110
     12 H1         -0.7905    0.9533    4.7569 H         1 <0>         0.0943
     13 C10        -0.7461   -0.8473    5.9851 C.3       1 <0>        -0.1111
     14 C11         0.3736   -0.9163    7.0680 C.3       1 <0>        -0.1020
     15 H2          0.0548   -1.2233    8.0641 H         1 <0>         0.1002
     16 C12         1.4955   -1.7801    6.4150 C.3       1 <0>        -0.1186
     17 C13         2.0828   -0.8818    5.3024 C.3       1 <0>        -0.1290
     18 C14         1.2478    0.4685    5.4009 C.3       1 <0>        -0.0940
     19 H3          1.6907    1.3527    4.9425 H         1 <0>         0.1052
     20 C15         0.9824    0.5254    6.9482 C.3       1 <0>        -0.1210
     21 C16         1.3302   -3.9496   -0.1934 C.2       1 <0>         0.4099
     22 N2          1.9013   -4.4712    0.8522 N.2       1 <0>        -0.4075
     23 O2          2.5334   -5.7347    0.7572 O.3       1 <0>        -0.4235
     24 N3          1.3403   -4.6297   -1.3995 N.pl3     1 <0>        -0.8703
     25 H4         -0.5284    1.9744   -0.0544 H         1 <0>         0.0754
     26 H5         -2.0748    1.2315   -0.5291 H         1 <0>         0.0750
     27 H6         -1.6273    1.3337    1.1907 H         1 <0>         0.0661
     28 H7         -1.0343   -0.4025   -1.9879 H         1 <0>         0.1346
     29 H8          0.0628   -2.5960   -2.1559 H         1 <0>         0.1271
     30 H9          1.1303   -2.3725    1.9891 H         1 <0>         0.1571
     31 H10         0.0870    0.9606    2.4224 H         1 <0>         0.4115
     32 H11        -1.6531   -0.4109    6.4035 H         1 <0>         0.0689
     33 H12        -0.9505   -1.8407    5.5859 H         1 <0>         0.0871
     34 H13         2.2625   -2.0254    7.1497 H         1 <0>         0.0610
     35 H14         1.0741   -2.6894    5.9863 H         1 <0>         0.0722
     36 H15         3.1384   -0.6854    5.4902 H         1 <0>         0.0635
     37 H16         1.9500   -1.3494    4.3268 H         1 <0>         0.0716
     38 H17         0.2588    1.2976    7.2092 H         1 <0>         0.0724
     39 H18         1.9059    0.6278    7.5180 H         1 <0>         0.0746
     40 H19         2.9292   -6.0397    1.5851 H         1 <0>         0.4014
     41 H20         0.9143   -4.2407   -2.1793 H         1 <0>         0.3958
     42 H21         1.7733   -5.4953   -1.4645 H         1 <0>         0.4092
@<TRIPOS>BOND
     1    1    2 1
     2    1   25 1
     3    1   26 1
     4    1   27 1
     5    2    7 ar
     6    2    3 ar
     7    3    4 ar
     8    3   28 1
     9    4    5 ar
    10    4   29 1
    11    5    6 ar
    12    5   21 1
    13    6    7 ar
    14    6   30 1
    15    7    8 1
    16    8    9 am
    17    8   31 1
    18    9   10 2
    19    9   11 1
    20   11   12 1
    21   11   18 1
    22   11   13 1
    23   13   14 1
    24   13   32 1
    25   13   33 1
    26   14   15 1
    27   14   20 1
    28   14   16 1
    29   16   17 1
    30   16   34 1
    31   16   35 1
    32   17   18 1
    33   17   36 1
    34   17   37 1
    35   18   19 1
    36   18   20 1
    37   20   38 1
    38   20   39 1
    39   21   22 2
    40   21   24 1
    41   22   23 1
    42   23   40 1
    43   24   41 1
    44   24   42 1
@<TRIPOS>MOLECULE
ZINC16490243
   28    29     0     0     0
SMALL
USER_CHARGES

@<TRIPOS>ATOM
      1 C1         -0.1615    1.2472    1.1106 C.2       1 <0>        -0.2417
      2 C2         -1.4037    1.8811    1.1279 C.2       1 <0>         0.0744
      3 C3         -2.5025    1.2274    0.5737 C.2       1 <0>        -0.2843
      4 C4         -2.3189   -0.0620    0.0103 C.2       1 <0>         0.5338
      5 N1         -1.0974   -0.6286    0.0199 N.am      1 <0>        -0.5981
      6 C5         -0.0339    0.0127    0.5604 C.2       1 <0>         0.1707
      7 O1         -3.2641   -0.6549   -0.4804 O.2       1 <0>        -0.5457
      8 C6         -3.8289    1.8624    0.5730 C.2       1 <0>         0.5794
      9 O2         -3.9979    2.9189    1.1524 O.2       1 <0>        -0.5293
     10 N2         -4.8574    1.2741   -0.0694 N.am      1 <0>        -0.6560
     11 C7         -6.0910    1.9306   -0.1650 C.ar      1 <0>         0.1155
     12 C8         -6.1346    3.3148   -0.2670 C.ar      1 <0>        -0.0576
     13 C9         -7.3513    3.9628   -0.3618 C.ar      1 <0>        -0.0881
     14 C10        -8.5313    3.2293   -0.3551 C.ar      1 <0>         0.2266
     15 C11        -8.4872    1.8443   -0.2531 C.ar      1 <0>        -0.0887
     16 C12        -7.2698    1.1967   -0.1636 C.ar      1 <0>        -0.0795
     17 Cl1        -9.9611    0.9272   -0.2447 Cl        1 <0>        -0.0555
     18 N3         -9.7647    3.8857   -0.4508 N.pl3     1 <0>        -0.8641
     19 Cl2        -7.4057    5.6934   -0.4887 Cl        1 <0>        -0.0551
     20 H1          0.7016    1.7413    1.5318 H         1 <0>         0.1596
     21 H2         -1.5124    2.8630    1.5643 H         1 <0>         0.1545
     22 H3          0.9346   -0.4650    0.5492 H         1 <0>         0.1762
     23 H4         -0.9772   -1.5102   -0.3665 H         1 <0>         0.4235
     24 H5         -4.7433    0.3960   -0.4654 H         1 <0>         0.4260
     25 H6         -5.2174    3.8850   -0.2718 H         1 <0>         0.1515
     26 H7         -7.2353    0.1199   -0.0885 H         1 <0>         0.1431
     27 H8         -9.7953    4.8526   -0.5217 H         1 <0>         0.4048
     28 H9        -10.5884    3.3734   -0.4461 H         1 <0>         0.4045
@<TRIPOS>BOND
     1    1    6 2
     2    1   20 1
     3    1    2 1
     4    2   21 1
     5    2    3 2
     6    3    4 1
     7    3    8 1
     8    4    7 2
     9    4    5 am
    10    5   23 1
    11    5    6 1
    12    6   22 1
    13    8    9 2
    14    8   10 am
    15   10   11 1
    16   10   24 1
    17   11   16 ar
    18   11   12 ar
    19   12   13 ar
    20   12   25 1
    21   13   14 ar
    22   13   19 1
    23   14   15 ar
    24   14   18 1
    25   15   16 ar
    26   15   17 1
    27   16   26 1
    28   18   27 1
    29   18   28 1
@<TRIPOS>MOLECULE
ZINC62832499
   37    39     0     0     0
SMALL
USER_CHARGES

@<TRIPOS>ATOM
      1 C1         -0.0187    1.5258    0.0104 C.3       1 <0>        -0.1595
      2 C2          0.0021   -0.0041    0.0020 C.3       1 <0>         0.1918
      3 H1          0.5123   -0.3556   -0.8948 H         1 <0>         0.1003
      4 C3         -1.4117   -0.5257    0.0127 C.ar      1 <0>        -0.1440
      5 C4         -2.0078   -0.9625   -1.1607 C.ar      1 <0>        -0.0627
      6 C5         -3.3101   -1.4342   -1.1032 C.ar      1 <0>        -0.1662
      7 C6         -3.9665   -1.4533    0.1131 C.ar      1 <0>         0.0984
      8 N1         -3.3683   -1.0294    1.2090 N.ar      1 <0>        -0.4802
      9 C7         -2.1285   -0.5800    1.1928 C.ar      1 <0>         0.1028
     10 N2          0.7106   -0.4894    1.1889 N.am      1 <0>        -0.7299
     11 C8          2.0538   -0.5998    1.1737 C.2       1 <0>         0.5957
     12 O1          2.6779   -0.2964    0.1742 O.2       1 <0>        -0.5390
     13 C9          2.7642   -1.0864    2.3637 C.2       1 <0>        -0.2450
     14 C10         2.2061   -1.4680    3.5483 C.2       1 <0>         0.1189
     15 N3          3.1771   -1.8568    4.4084 N.pl3     1 <0>        -0.5741
     16 H2          3.0221   -2.1706    5.3131 H         1 <0>         0.4197
     17 C11         4.4198   -1.7440    3.8151 C.ar      1 <0>         0.0312
     18 C12         4.2206   -1.2645    2.5105 C.ar      1 <0>        -0.0099
     19 C13         5.3090   -1.0571    1.6675 C.ar      1 <0>        -0.1578
     20 C14         6.5877   -1.3298    2.1219 C.ar      1 <0>         0.2005
     21 C15         6.7831   -1.8089    3.4153 C.ar      1 <0>        -0.1652
     22 C16         5.7117   -2.0083    4.2576 C.ar      1 <0>        -0.0769
     23 N4          7.6862   -1.1243    1.2802 N.pl3     1 <0>        -0.8801
     24 H3          1.0039    1.9031    0.0027 H         1 <0>         0.0701
     25 H4         -0.5459    1.8868   -0.8726 H         1 <0>         0.0674
     26 H5         -0.5289    1.8773    0.9072 H         1 <0>         0.0595
     27 H6         -1.4704   -0.9356   -2.0971 H         1 <0>         0.1384
     28 H7         -3.8057   -1.7820   -1.9976 H         1 <0>         0.1390
     29 H8         -4.9813   -1.8192    0.1663 H         1 <0>         0.1582
     30 H9         -1.6697   -0.2462    2.1118 H         1 <0>         0.1510
     31 H10         0.2131   -0.7312    1.9857 H         1 <0>         0.3950
     32 H11         1.1486   -1.4605    3.7676 H         1 <0>         0.1752
     33 H12         5.1565   -0.6860    0.6648 H         1 <0>         0.1311
     34 H13         7.7837   -2.0194    3.7628 H         1 <0>         0.1265
     35 H14         5.8738   -2.3817    5.2580 H         1 <0>         0.1236
     36 H15         7.5513   -0.7910    0.3793 H         1 <0>         0.3991
     37 H16         8.5828   -1.3151    1.5976 H         1 <0>         0.3971
@<TRIPOS>BOND
     1    1    2 1
     2    1   24 1
     3    1   25 1
     4    1   26 1
     5    2    3 1
     6    2    4 1
     7    2   10 1
     8    4    9 ar
     9    4    5 ar
    10    5    6 ar
    11    5   27 1
    12    6    7 ar
    13    6   28 1
    14    7    8 ar
    15    7   29 1
    16    8    9 ar
    17    9   30 1
    18   10   11 am
    19   10   31 1
    20   11   12 2
    21   11   13 1
    22   13   18 1
    23   13   14 2
    24   14   15 1
    25   14   32 1
    26   15   16 1
    27   15   17 1
    28   17   22 ar
    29   17   18 ar
    30   18   19 ar
    31   19   20 ar
    32   19   33 1
    33   20   21 ar
    34   20   23 1
    35   21   22 ar
    36   21   34 1
    37   22   35 1
    38   23   36 1
    39   23   37 1
@<TRIPOS>MOLECULE
ZINC35678966
   42    45     0     0     0
SMALL
USER_CHARGES

@<TRIPOS>ATOM
      1 C1         -0.0167    1.3829    0.0096 C.ar      1 <0>        -0.2083
      2 C2          1.1708    2.0867    0.0021 C.ar      1 <0>        -0.0660
      3 C3          2.3814    1.4142   -0.0136 C.ar      1 <0>        -0.1376
      4 C4          2.4027    0.0313   -0.0213 C.ar      1 <0>        -0.0590
      5 C5          1.2141   -0.6770   -0.0132 C.ar      1 <0>        -0.1380
      6 C6          0.0021   -0.0041    0.0020 C.ar      1 <0>         0.1344
      7 O1         -1.1644   -0.7014    0.0095 O.3       1 <0>        -0.3075
      8 C7         -2.3744    0.0586    0.0252 C.3       1 <0>         0.1422
      9 C8         -3.5554   -0.8775    0.0315 C.2       1 <0>        -0.0035
     10 C9         -4.1641   -1.3673    1.1315 C.2       1 <0>        -0.1776
     11 C10        -5.2121   -2.1949    0.6905 C.2       1 <0>        -0.1541
     12 C11        -5.1873   -2.1661   -0.6741 C.2       1 <0>         0.0375
     13 O2         -4.1788   -1.3568   -1.0563 O.3       1 <0>        -0.1402
     14 C12        -6.1005   -2.8844   -1.5672 C.2       1 <0>         0.2001
     15 N1         -5.9708   -2.7729   -2.8569 N.2       1 <0>        -0.2048
     16 N2         -6.8438   -3.4596   -3.7108 N.pl3     1 <0>        -0.3559
     17 C13        -6.6840   -4.7222   -4.2164 C.2       1 <0>         0.0346
     18 N3         -7.7226   -4.9752   -4.9633 N.2       1 <0>        -0.2401
     19 N4         -8.5218   -3.9688   -4.9654 N.2       1 <0>        -0.3254
     20 C14        -8.0369   -3.0108   -4.2086 C.2       1 <0>         0.3877
     21 S1         -8.7797   -1.4438   -3.8969 S.3       1 <0>        -0.7741
     22 C15        -5.5230   -5.6476   -3.9580 C.3       1 <0>         0.3800
     23 F1         -5.3308   -6.4760   -5.0688 F         1 <0>        -0.1817
     24 F2         -4.3664   -4.8932   -3.7333 F         1 <0>        -0.1919
     25 C16         3.8351   -0.4580   -0.0389 C.3       1 <0>        -0.0830
     26 C17         4.6729    0.7603   -0.4815 C.3       1 <0>        -0.1209
     27 C18         3.7983    1.9473   -0.0253 C.3       1 <0>        -0.0775
     28 H1         -0.9586    1.9111    0.0260 H         1 <0>         0.1315
     29 H2          1.1557    3.1666    0.0081 H         1 <0>         0.1234
     30 H3          1.2306   -1.7568   -0.0195 H         1 <0>         0.1296
     31 H4         -2.4003    0.6822    0.9188 H         1 <0>         0.0994
     32 H5         -2.4174    0.6917   -0.8611 H         1 <0>         0.0855
     33 H6         -3.8965   -1.1627    2.1577 H         1 <0>         0.1591
     34 H7         -5.9027   -2.7465    1.3112 H         1 <0>         0.1639
     35 H8         -6.8812   -3.5064   -1.1548 H         1 <0>         0.1519
     36 H9         -5.7340   -6.2592   -3.0808 H         1 <0>         0.1267
     37 H10         4.1363   -0.7824    0.9572 H         1 <0>         0.0825
     38 H11         3.9474   -1.2737   -0.7532 H         1 <0>         0.0776
     39 H12         5.6374    0.7723    0.0261 H         1 <0>         0.0766
     40 H13         4.8032    0.7685   -1.5636 H         1 <0>         0.0729
     41 H14         3.8854    2.7742   -0.7301 H         1 <0>         0.0728
     42 H15         4.0894    2.2694    0.9745 H         1 <0>         0.0770
@<TRIPOS>BOND
     1    1    6 ar
     2    1    2 ar
     3    1   28 1
     4    2    3 ar
     5    2   29 1
     6    3   27 1
     7    3    4 ar
     8    4    5 ar
     9    4   25 1
    10    5    6 ar
    11    5   30 1
    12    6    7 1
    13    7    8 1
    14    8    9 1
    15    8   31 1
    16    8   32 1
    17    9   13 1
    18    9   10 2
    19   10   11 1
    20   10   33 1
    21   11   12 2
    22   11   34 1
    23   12   13 1
    24   12   14 1
    25   14   15 2
    26   14   35 1
    27   15   16 1
    28   16   20 1
    29   16   17 1
    30   17   18 2
    31   17   22 1
    32   18   19 1
    33   19   20 2
    34   20   21 1
    35   22   23 1
    36   22   24 1
    37   22   36 1
    38   25   26 1
    39   25   37 1
    40   25   38 1
    41   26   27 1
    42   26   39 1
    43   26   40 1
    44   27   41 1
    45   27   42 1
@<TRIPOS>MOLECULE
ZINC51847680
   53    55     0     0     0
SMALL
USER_CHARGES

@<TRIPOS>ATOM
      1 C1         -0.4718    1.5788   -0.2256 C.3       1 <0>        -0.1527
      2 C2         -0.3793    0.0517   -0.2415 C.3       1 <0>        -0.1209
      3 C3         -1.7579   -0.5459    0.0468 C.3       1 <0>        -0.0260
      4 C4         -1.6668   -2.0500    0.0311 C.2       1 <0>         0.0767
      5 N1         -1.4153   -2.8940    1.0126 N.2       1 <0>        -0.2556
      6 N2         -1.3741   -4.1415    0.8314 N.2       1 <0>        -0.2761
      7 C5         -1.5820   -4.6823   -0.3617 C.2       1 <0>         0.2807
      8 S1         -1.8769   -3.2013   -1.3241 S.3       1 <0>        -0.0095
      9 N3         -1.5778   -6.0147   -0.7515 N.am      1 <0>        -0.5861
     10 C6         -1.3343   -6.9814    0.1555 C.2       1 <0>         0.5110
     11 O1         -1.1186   -6.6871    1.3132 O.2       1 <0>        -0.4335
     12 C7         -1.3297   -8.4145   -0.2637 C.2       1 <0>         0.5168
     13 O2         -1.4321   -8.7036   -1.4380 O.2       1 <0>        -0.5123
     14 N4         -1.2120   -9.3871    0.6619 N.am      1 <0>        -0.5702
     15 C8         -1.2158   -9.0613    2.0946 C.3       1 <0>         0.0430
     16 C9          0.0327   -9.6691    2.7418 C.3       1 <0>        -0.1297
     17 C10         0.0813  -11.1683    2.4382 C.3       1 <0>        -0.1194
     18 C11         0.1691  -11.3815    0.9252 C.3       1 <0>        -0.0948
     19 C12        -1.0835  -10.7937    0.2576 C.3       1 <0>         0.1103
     20 C13         0.2507  -12.8794    0.6245 C.3       1 <0>        -0.0731
     21 C14         0.4604  -13.0843   -0.8537 C.ar      1 <0>        -0.0911
     22 C15        -0.6289  -13.2044   -1.6962 C.ar      1 <0>        -0.1127
     23 C16        -0.4365  -13.3924   -3.0521 C.ar      1 <0>        -0.1164
     24 C17         0.8452  -13.4598   -3.5656 C.ar      1 <0>        -0.0884
     25 C18         1.9345  -13.3388   -2.7232 C.ar      1 <0>        -0.1185
     26 C19         1.7421  -13.1466   -1.3679 C.ar      1 <0>        -0.1122
     27 C20         1.0549  -13.6657   -5.0437 C.3       1 <0>        -0.1166
     28 H1          0.5104    2.0045   -0.4310 H         1 <0>         0.0614
     29 H2         -1.1773    1.9080   -0.9884 H         1 <0>         0.0582
     30 H3         -0.8145    1.9118    0.7541 H         1 <0>         0.0601
     31 H4         -0.0366   -0.2813   -1.2212 H         1 <0>         0.0672
     32 H5          0.3262   -0.2776    0.5213 H         1 <0>         0.0728
     33 H6         -2.1006   -0.2129    1.0265 H         1 <0>         0.1097
     34 H7         -2.4634   -0.2166   -0.7161 H         1 <0>         0.0980
     35 H8         -1.7501   -6.2500   -1.6766 H         1 <0>         0.4415
     36 H9         -1.2040   -7.9790    2.2233 H         1 <0>         0.1540
     37 H10        -2.1086   -9.4772    2.5615 H         1 <0>         0.0714
     38 H11         0.9230   -9.1870    2.3380 H         1 <0>         0.0672
     39 H12        -0.0063   -9.5174    3.8205 H         1 <0>         0.0810
     40 H13         0.9557  -11.6078    2.9182 H         1 <0>         0.0701
     41 H14        -0.8210  -11.6457    2.8204 H         1 <0>         0.0676
     42 H15         1.0581  -10.8833    0.5386 H         1 <0>         0.0785
     43 H16        -1.9657  -11.3480    0.5778 H         1 <0>         0.0768
     44 H17        -0.9844  -10.8548   -0.8262 H         1 <0>         0.1011
     45 H18         1.0853  -13.3153    1.1738 H         1 <0>         0.0795
     46 H19        -0.6773  -13.3625    0.9302 H         1 <0>         0.0761
     47 H20        -1.6302  -13.1517   -1.2950 H         1 <0>         0.1203
     48 H21        -1.2876  -13.4869   -3.7103 H         1 <0>         0.1212
     49 H22         2.9358  -13.3918   -3.1243 H         1 <0>         0.1206
     50 H23         2.5931  -13.0483   -0.7102 H         1 <0>         0.1203
     51 H24         1.1020  -12.6976   -5.5423 H         1 <0>         0.0705
     52 H25         1.9885  -14.2042   -5.2066 H         1 <0>         0.0659
     53 H26         0.2258  -14.2443   -5.4511 H         1 <0>         0.0662
@<TRIPOS>BOND
     1    1    2 1
     2    1   28 1
     3    1   29 1
     4    1   30 1
     5    2    3 1
     6    2   31 1
     7    2   32 1
     8    3    4 1
     9    3   33 1
    10    3   34 1
    11    4    8 1
    12    4    5 2
    13    5    6 1
    14    6    7 2
    15    7    8 1
    16    7    9 1
    17    9   10 am
    18    9   35 1
    19   10   11 2
    20   10   12 1
    21   12   13 2
    22   12   14 am
    23   14   19 1
    24   14   15 1
    25   15   16 1
    26   15   36 1
    27   15   37 1
    28   16   17 1
    29   16   38 1
    30   16   39 1
    31   17   18 1
    32   17   40 1
    33   17   41 1
    34   18   19 1
    35   18   20 1
    36   18   42 1
    37   19   43 1
    38   19   44 1
    39   20   21 1
    40   20   45 1
    41   20   46 1
    42   21   26 ar
    43   21   22 ar
    44   22   23 ar
    45   22   47 1
    46   23   24 ar
    47   23   48 1
    48   24   25 ar
    49   24   27 1
    50   25   26 ar
    51   25   49 1
    52   26   50 1
    53   27   51 1
    54   27   52 1
    55   27   53 1
@<TRIPOS>MOLECULE
ZINC10514269
   34    35     0     0     0
SMALL
USER_CHARGES

@<TRIPOS>ATOM
      1 C1         -0.0184    1.5028    0.0103 C.3       1 <0>        -0.1120
      2 C2          0.0021   -0.0041    0.0020 C.ar      1 <0>        -0.1442
      3 C3          0.0057   -0.6874   -1.2004 C.ar      1 <0>        -0.0632
      4 C4          0.0244   -2.0681   -1.2116 C.ar      1 <0>        -0.2324
      5 C5          0.0396   -2.7708   -0.0132 C.ar      1 <0>         0.2732
      6 C6          0.0359   -2.0814    1.1925 C.ar      1 <0>        -0.1305
      7 C7          0.0229   -0.7002    1.1965 C.ar      1 <0>        -0.1416
      8 C8          0.0251    0.0488    2.5042 C.3       1 <0>         0.5100
      9 F1          0.0475   -0.8638    3.5642 F         1 <0>        -0.1806
     10 F2          1.1570    0.8683    2.5703 F         1 <0>        -0.1823
     11 F3         -1.1273    0.8372    2.5919 F         1 <0>        -0.1820
     12 N1          0.0581   -4.1674   -0.0209 N.2       1 <0>        -1.0825
     13 S1          0.0619   -4.9875   -1.4596 S.o2      1 <0>         2.5967
     14 O1         -1.1901   -4.7266   -2.0791 O.2       1 <0>        -1.0165
     15 O2          1.3004   -4.6936   -2.0913 O.2       1 <0>        -1.0165
     16 C9          0.0866   -6.7076   -1.0786 C.ar      1 <0>        -0.5703
     17 C10         1.2933   -7.3653   -0.9295 C.ar      1 <0>        -0.0227
     18 C11         1.3126   -8.7148   -0.6306 C.ar      1 <0>        -0.0793
     19 C12         0.1253   -9.4066   -0.4804 C.ar      1 <0>        -0.0173
     20 C13        -1.0814   -8.7487   -0.6286 C.ar      1 <0>        -0.0793
     21 C14        -1.1008   -7.3983   -0.9233 C.ar      1 <0>        -0.0228
     22 N2          0.1460  -10.8518   -0.1613 N.pl3     1 <0>         0.0326
     23 O3          1.2014  -11.4272   -0.0320 O.2       1 <0>        -0.1573
     24 O4         -0.8924  -11.4568   -0.0299 O.3       1 <0>        -0.1572
     25 H1          1.0042    1.8801    0.0026 H         1 <0>         0.0621
     26 H2         -0.5455    1.8639   -0.8728 H         1 <0>         0.0620
     27 H3         -0.5286    1.8543    0.9071 H         1 <0>         0.0618
     28 H4         -0.0065   -0.1406   -2.1317 H         1 <0>         0.1162
     29 H5          0.0269   -2.6011   -2.1509 H         1 <0>         0.1057
     30 H6          0.0473   -2.6246    2.1259 H         1 <0>         0.1298
     31 H7          2.2209   -6.8248   -1.0468 H         1 <0>         0.1619
     32 H8          2.2554   -9.2288   -0.5148 H         1 <0>         0.1583
     33 H9         -2.0091   -9.2893   -0.5117 H         1 <0>         0.1583
     34 H10        -2.0436   -6.8835   -1.0354 H         1 <0>         0.1620
@<TRIPOS>BOND
     1    1    2 1
     2    1   25 1
     3    1   26 1
     4    1   27 1
     5    2    7 ar
     6    2    3 ar
     7    3    4 ar
     8    3   28 1
     9    4    5 ar
    10    4   29 1
    11    5    6 ar
    12    5   12 1
    13    6    7 ar
    14    6   30 1
    15    7    8 1
    16    8    9 1
    17    8   10 1
    18    8   11 1
    19   12   13 1
    20   13   14 2
    21   13   15 2
    22   13   16 1
    23   16   21 ar
    24   16   17 ar
    25   17   18 ar
    26   17   31 1
    27   18   19 ar
    28   18   32 1
    29   19   20 ar
    30   19   22 1
    31   20   21 ar
    32   20   33 1
    33   21   34 1
    34   22   23 2
    35   22   24 1
@<TRIPOS>MOLECULE
ZINC65137763
   48    50     0     0     0
SMALL
USER_CHARGES

@<TRIPOS>ATOM
      1 C1          1.6556    1.5644   -6.2927 C.3       1 <0>        -0.1494
      2 C2          1.6464    0.0345   -6.2911 C.3       1 <0>         0.0592
      3 O1          1.7203   -0.4409   -4.9455 O.3       1 <0>        -0.3286
      4 C3          1.7224   -1.7890   -4.7662 C.ar      1 <0>         0.0160
      5 C4          1.6603   -2.6344   -5.8640 C.ar      1 <0>        -0.1569
      6 C5          1.6623   -4.0035   -5.6829 C.ar      1 <0>        -0.1496
      7 C6          1.7265   -4.5338   -4.4011 C.ar      1 <0>         0.2522
      8 C7          1.7887   -3.6867   -3.3025 C.ar      1 <0>        -0.2298
      9 C8          1.7923   -2.3178   -3.4858 C.ar      1 <0>        -0.0902
     10 N1          1.7282   -5.9209   -4.2166 N.2       1 <0>        -1.0901
     11 S1          1.8048   -6.5528   -2.6878 S.o2      1 <0>         2.6037
     12 O2          3.0812   -6.2058   -2.1684 O.2       1 <0>        -1.0274
     13 O3          0.5940   -6.1913   -2.0378 O.2       1 <0>        -1.0276
     14 C9          1.7862   -8.3074   -2.8477 C.2       1 <0>        -0.6736
     15 C10         2.9139   -8.9885   -2.7877 C.2       1 <0>         0.0266
     16 S2          2.4591  -10.7033   -2.9725 S.3       1 <0>        -0.1664
     17 C11         0.6426  -10.5344   -2.7147 C.3       1 <0>        -0.0030
     18 H1          0.0805  -11.1576   -3.4102 H         1 <0>         0.1253
     19 C12         0.4916   -9.0280   -3.0455 C.3       1 <0>        -0.0608
     20 C13         0.2520  -10.8280   -1.2648 C.3       1 <0>        -0.0256
     21 H2          0.7613  -10.1459   -0.5841 H         1 <0>         0.1501
     22 C14         0.5589  -12.2717   -0.9077 C.2       1 <0>        -0.1054
     23 C15        -0.6341  -12.7887   -0.6062 C.2       1 <0>        -0.0622
     24 N2         -1.6064  -11.8586   -0.7330 N.2       1 <0>        -0.1611
     25 N3         -1.2082  -10.7433   -1.0913 N.2       1 <0>        -0.1482
     26 C16        -0.8656  -14.2161   -0.1819 C.3       1 <0>        -0.0795
     27 C17         1.8991  -12.9607   -0.8968 C.3       1 <0>        -0.1072
     28 C18         4.3021   -8.4322   -2.6018 C.3       1 <0>        -0.1030
     29 H3          0.7986    1.9335   -5.7293 H         1 <0>         0.0618
     30 H4          2.5756    1.9227   -5.8308 H         1 <0>         0.0617
     31 H5          1.5991    1.9270   -7.3190 H         1 <0>         0.0699
     32 H6          0.7263   -0.3238   -6.7529 H         1 <0>         0.0525
     33 H7          2.5034   -0.3346   -6.8544 H         1 <0>         0.0524
     34 H8          1.6099   -2.2218   -6.8609 H         1 <0>         0.1107
     35 H9          1.6135   -4.6616   -6.5378 H         1 <0>         0.1150
     36 H10         1.8387   -4.0983   -2.3053 H         1 <0>         0.1030
     37 H11         1.8455   -1.6589   -2.6318 H         1 <0>         0.1109
     38 H12        -0.2660   -8.5901   -2.3956 H         1 <0>         0.1082
     39 H13         0.1766   -8.9219   -4.0836 H         1 <0>         0.1045
     40 H14        -0.7905  -14.2893    0.9030 H         1 <0>         0.0749
     41 H15        -1.8590  -14.5330   -0.4995 H         1 <0>         0.0760
     42 H16        -0.1148  -14.8583   -0.6423 H         1 <0>         0.0734
     43 H17         2.3536  -12.8559    0.0884 H         1 <0>         0.0848
     44 H18         1.7658  -14.0182   -1.1248 H         1 <0>         0.0761
     45 H19         2.5474  -12.5064   -1.6461 H         1 <0>         0.0989
     46 H20         4.4974   -8.2907   -1.5388 H         1 <0>         0.0927
     47 H21         5.0311   -9.1288   -3.0156 H         1 <0>         0.0701
     48 H22         4.3817   -7.4746   -3.1164 H         1 <0>         0.1147
@<TRIPOS>BOND
     1    1    2 1
     2    1   29 1
     3    1   30 1
     4    1   31 1
     5    2    3 1
     6    2   32 1
     7    2   33 1
     8    3    4 1
     9    4    9 ar
    10    4    5 ar
    11    5    6 ar
    12    5   34 1
    13    6    7 ar
    14    6   35 1
    15    7    8 ar
    16    7   10 1
    17    8    9 ar
    18    8   36 1
    19    9   37 1
    20   10   11 1
    21   11   12 2
    22   11   13 2
    23   11   14 1
    24   14   19 1
    25   14   15 2
    26   15   16 1
    27   15   28 1
    28   16   17 1
    29   17   18 1
    30   17   19 1
    31   17   20 1
    32   19   38 1
    33   19   39 1
    34   20   21 1
    35   20   25 1
    36   20   22 1
    37   22   23 2
    38   22   27 1
    39   23   24 1
    40   23   26 1
    41   24   25 2
    42   26   40 1
    43   26   41 1
    44   26   42 1
    45   27   43 1
    46   27   44 1
    47   27   45 1
    48   28   46 1
    49   28   47 1
    50   28   48 1
@<TRIPOS>MOLECULE
ZINC66516958
   42    44     0     0     0
SMALL
USER_CHARGES

@<TRIPOS>ATOM
      1 C1         -0.0782    1.5702   -0.0079 C.3       1 <0>        -0.1653
      2 C2         -0.0082    0.0418    0.0009 C.3       1 <0>         0.0984
      3 N1         -1.3655   -0.5091    0.0149 N.pl3     1 <0>        -0.4536
      4 C3         -2.1005   -0.7982    1.1402 C.ar      1 <0>         0.1146
      5 C4         -1.8409   -0.6823    2.5031 C.ar      1 <0>        -0.1295
      6 C5         -2.7977   -1.0630    3.4169 C.ar      1 <0>        -0.0905
      7 C6         -4.0228   -1.5630    2.9930 C.ar      1 <0>        -0.1536
      8 C7         -4.3005   -1.6861    1.6629 C.ar      1 <0>        -0.0579
      9 C8         -3.3433   -1.3055    0.7129 C.ar      1 <0>        -0.1217
     10 C9         -3.3238   -1.3087   -0.7024 C.2       1 <0>        -0.1091
     11 C10        -2.1199   -0.8182   -1.1008 C.2       1 <0>         0.0440
     12 C11        -1.6890   -0.6470   -2.4945 C.2       1 <0>         0.5096
     13 O1         -2.4361   -0.9525   -3.4038 O.2       1 <0>        -0.4742
     14 O2         -0.4648   -0.1511   -2.7656 O.3       1 <0>        -0.2813
     15 C12        -0.0684   -0.1045   -4.0655 C.ar      1 <0>        -0.0475
     16 C13        -0.5564    0.8871   -4.9040 C.ar      1 <0>        -0.0673
     17 C14        -0.1540    0.9354   -6.2240 C.ar      1 <0>        -0.1742
     18 C15         0.7396   -0.0091   -6.7121 C.ar      1 <0>         0.2944
     19 C16         1.2277   -1.0015   -5.8720 C.ar      1 <0>        -0.2466
     20 C17         0.8284   -1.0452   -4.5509 C.ar      1 <0>        -0.0551
     21 N2          1.1474    0.0388   -8.0493 N.2       1 <0>        -1.0935
     22 S1          2.2129   -1.0876   -8.6308 S.o2      1 <0>         2.5255
     23 O3          3.4114   -0.8639   -7.9008 O.2       1 <0>        -1.0289
     24 O4          1.5231   -2.3257   -8.5291 O.2       1 <0>        -1.0278
     25 C18         2.4518   -0.6469  -10.3742 C.3       1 <0>        -0.6365
     26 H1          0.9317    1.9802   -0.0183 H         1 <0>         0.0769
     27 H2         -0.6151    1.9042   -0.8958 H         1 <0>         0.0667
     28 H3         -0.6012    1.9151    0.8841 H         1 <0>         0.0563
     29 H4          0.5148   -0.3030   -0.8911 H         1 <0>         0.1105
     30 H5          0.5287   -0.2922    0.8888 H         1 <0>         0.0868
     31 H6         -0.8916   -0.2951    2.8426 H         1 <0>         0.1206
     32 H7         -2.5939   -0.9724    4.4736 H         1 <0>         0.1249
     33 H8         -4.7621   -1.8574    3.7232 H         1 <0>         0.1221
     34 H9         -5.2557   -2.0755    1.3430 H         1 <0>         0.1244
     35 H10        -4.1230   -1.6384   -1.3497 H         1 <0>         0.1578
     36 H11        -1.2515    1.6213   -4.5244 H         1 <0>         0.1087
     37 H12        -0.5343    1.7072   -6.8768 H         1 <0>         0.1195
     38 H13         1.9226   -1.7363   -6.2508 H         1 <0>         0.1099
     39 H14         1.2113   -1.8141   -3.8963 H         1 <0>         0.1086
     40 H15         2.8562    0.3631  -10.4415 H         1 <0>         0.1157
     41 H16         3.1479   -1.3483  -10.8342 H         1 <0>         0.1021
     42 H17         1.4950   -0.6906  -10.8944 H         1 <0>         0.1159
@<TRIPOS>BOND
     1    1    2 1
     2    1   26 1
     3    1   27 1
     4    1   28 1
     5    2    3 1
     6    2   29 1
     7    2   30 1
     8    3   11 1
     9    3    4 1
    10    4    9 ar
    11    4    5 ar
    12    5    6 ar
    13    5   31 1
    14    6    7 ar
    15    6   32 1
    16    7    8 ar
    17    7   33 1
    18    8    9 ar
    19    8   34 1
    20    9   10 1
    21   10   11 2
    22   10   35 1
    23   11   12 1
    24   12   13 2
    25   12   14 1
    26   14   15 1
    27   15   20 ar
    28   15   16 ar
    29   16   17 ar
    30   16   36 1
    31   17   18 ar
    32   17   37 1
    33   18   19 ar
    34   18   21 1
    35   19   20 ar
    36   19   38 1
    37   20   39 1
    38   21   22 1
    39   22   23 2
    40   22   24 2
    41   22   25 1
    42   25   40 1
    43   25   41 1
    44   25   42 1
@<TRIPOS>MOLECULE
ZINC01212846
   30    32     0     0     0
SMALL
USER_CHARGES
(5E)-5-[[1-(3-nitrophenyl)pyrrol-2-yl]methylene]-2-thioxo-thiazolidin-4-one
@<TRIPOS>ATOM
      1 C1          3.1007    2.9343    0.2085 C.ar      1 <0>        -0.1047
      2 C2          2.5813    1.6593    0.0969 C.ar      1 <0>        -0.0587
      3 C3          1.2544    1.4203    0.4291 C.ar      1 <0>         0.1299
      4 C4          0.4521    2.4659    0.8676 C.ar      1 <0>        -0.0190
      5 C5          0.9786    3.7374    0.9811 C.ar      1 <0>         0.0081
      6 C6          2.3008    3.9721    0.6499 C.ar      1 <0>        -0.0489
      7 N1          0.1256    4.8513    1.4528 N.pl3     1 <0>        -0.0156
      8 O1          0.6258    6.0652    1.5569 O.2       1 <0>        -0.1670
      9 O2         -1.1335    4.6286    1.7683 O.3       1 <0>        -0.1598
     10 N2          0.7246    0.1289    0.3166 N.pl3     1 <0>        -0.3395
     11 C7          0.0686   -0.5369    1.2839 C.2       1 <0>        -0.0183
     12 C8         -0.3186   -1.7933    0.8233 C.2       1 <0>        -0.1819
     13 C9          0.1084   -1.9332   -0.4646 C.2       1 <0>        -0.1394
     14 C10         0.7944   -0.6801   -0.8105 C.2       1 <0>         0.0106
     15 C11         1.3902   -0.3686   -2.0170 C.2       1 <0>         0.0041
     16 C12         1.0047    0.8003   -2.7159 C.2       1 <0>        -0.2213
     17 C13        -0.0878    1.7694   -2.4052 C.2       1 <0>         0.5163
     18 O3         -0.8113    1.6340   -1.4395 O.3       1 <0>        -0.4882
     19 N3         -0.2214    2.7852   -3.2435 N.2       1 <0>        -0.6408
     20 C14         0.6009    2.9028   -4.3047 C.2       1 <0>         0.3777
     21 S1          0.6102    4.1221   -5.5065 S.2       1 <0>        -0.5575
     22 S2          1.6816    1.4917   -4.1574 S.3       1 <0>        -0.1162
     23 H1          4.1327    3.1209   -0.0497 H         1 <0>         0.1597
     24 H2          3.2066    0.8491   -0.2479 H         1 <0>         0.1501
     25 H3         -0.5815    2.2840    1.1225 H         1 <0>         0.1637
     26 H4          2.7092    4.9682    0.7360 H         1 <0>         0.1613
     27 H5         -0.1307   -0.1525    2.2733 H         1 <0>         0.1606
     28 H6         -0.8623   -2.5335    1.3916 H         1 <0>         0.1413
     29 H7         -0.0304   -2.7931   -1.1032 H         1 <0>         0.1463
     30 H8          2.1644   -1.0290   -2.4347 H         1 <0>         0.1471
@<TRIPOS>BOND
     1    1    6 ar
     2    1    2 ar
     3    1   23 1
     4    2    3 ar
     5    2   24 1
     6    3    4 ar
     7    3   10 1
     8    4    5 ar
     9    4   25 1
    10    5    6 ar
    11    5    7 1
    12    6   26 1
    13    7    8 2
    14    7    9 1
    15   10   14 1
    16   10   11 1
    17   11   12 2
    18   11   27 1
    19   12   13 1
    20   12   28 1
    21   13   14 2
    22   13   29 1
    23   14   15 1
    24   15   16 2
    25   15   30 1
    26   16   22 1
    27   16   17 1
    28   17   18 1
    29   17   19 2
    30   19   20 1
    31   20   21 2
    32   20   22 1
@<TRIPOS>MOLECULE
ZINC12463602
   36    38     0     0     0
SMALL
USER_CHARGES
4-[[(E)-3-(2-furyl)prop-2-enylidene]amino]-3-(4-methoxyphenyl)-1H-1,2,4-triazole-5-thione
@<TRIPOS>ATOM
      1 C1          0.8481    0.7730    6.6677 C.3       1 <0>         0.0240
      2 O1          1.1582    2.1500    6.4446 O.3       1 <0>        -0.3182
      3 C2          1.1418    2.5853    5.1577 C.ar      1 <0>         0.1236
      4 C3          1.4340    3.9124    4.8717 C.ar      1 <0>        -0.1491
      5 C4          1.4179    4.3578    3.5672 C.ar      1 <0>        -0.0459
      6 C5          1.1075    3.4732    2.5334 C.ar      1 <0>        -0.0291
      7 C6          0.8092    2.1415    2.8253 C.ar      1 <0>        -0.0747
      8 C7          0.8325    1.7021    4.1317 C.ar      1 <0>        -0.2031
      9 C8          1.0887    3.9473    1.1325 C.2       1 <0>         0.2122
     10 N1          1.0685    5.1946    0.7502 N.2       1 <0>        -0.3052
     11 N2          1.0552    5.2185   -0.6511 N.2       1 <0>        -0.3715
     12 C9          1.0737    3.9396   -1.0794 C.2       1 <0>         0.3959
     13 S1          1.0736    3.4204   -2.7108 S.3       1 <0>        -0.7638
     14 N3          1.0889    3.1441    0.0085 N.pl3     1 <0>        -0.3745
     15 N4          1.1079    1.7432    0.0008 N.2       1 <0>        -0.2252
     16 C10        -0.0126    1.0758    0.0080 C.2       1 <0>         0.1502
     17 C11        -1.2468    1.7662    0.0176 C.2       1 <0>        -0.1563
     18 C12        -2.4106    1.0731    0.0193 C.2       1 <0>        -0.0311
     19 C13        -3.6861    1.7866    0.0292 C.2       1 <0>         0.0083
     20 C14        -4.9279    1.2134    0.0265 C.2       1 <0>        -0.1837
     21 C15        -5.8588    2.2665    0.0425 C.2       1 <0>        -0.2201
     22 C16        -5.1557    3.4187    0.0448 C.2       1 <0>        -0.0249
     23 O2         -3.8453    3.1258    0.0368 O.3       1 <0>        -0.1632
     24 H1          0.8973    0.5560    7.7450 H         1 <0>         0.0988
     25 H2          1.5738    0.1425    6.1331 H         1 <0>         0.0560
     26 H3         -0.1655    0.5607    6.2967 H         1 <0>         0.0554
     27 H4          1.6745    4.5963    5.6722 H         1 <0>         0.1343
     28 H5          1.6449    5.3902    3.3456 H         1 <0>         0.1418
     29 H6          0.5645    1.4550    2.0283 H         1 <0>         0.1279
     30 H7          0.6054    0.6708    4.3580 H         1 <0>         0.1292
     31 H8          0.0023   -0.0241    0.0066 H         1 <0>         0.1886
     32 H9         -1.2617    2.8661    0.0237 H         1 <0>         0.1282
     33 H10        -2.3957   -0.0268    0.0132 H         1 <0>         0.1587
     34 H11        -5.1502    0.1566    0.0168 H         1 <0>         0.1527
     35 H12        -6.9346    2.1716    0.0473 H         1 <0>         0.1504
     36 H13        -5.5777    4.4128    0.0516 H         1 <0>         0.2035
@<TRIPOS>BOND
     1    1    2 1
     2    1   24 1
     3    1   25 1
     4    1   26 1
     5    2    3 1
     6    3    8 ar
     7    3    4 ar
     8    4    5 ar
     9    4   27 1
    10    5    6 ar
    11    5   28 1
    12    6    7 ar
    13    6    9 1
    14    7    8 ar
    15    7   29 1
    16    8   30 1
    17    9   14 1
    18    9   10 2
    19   10   11 1
    20   11   12 2
    21   12   13 1
    22   12   14 1
    23   14   15 1
    24   15   16 2
    25   16   17 1
    26   16   31 1
    27   17   18 2
    28   17   32 1
    29   18   19 1
    30   18   33 1
    31   19   23 1
    32   19   20 2
    33   20   21 1
    34   20   34 1
    35   21   22 2
    36   21   35 1
    37   22   23 1
    38   22   36 1
@<TRIPOS>MOLECULE
ZINC42154634
   36    38     0     0     0
SMALL
USER_CHARGES

@<TRIPOS>ATOM
      1 C1         -0.0187    1.5258    0.0104 C.3       1 <0>        -0.1519
      2 C2          0.0021   -0.0041    0.0020 C.3       1 <0>         0.0539
      3 O1          0.6709   -0.4649   -1.1737 O.3       1 <0>        -0.3183
      4 C3          0.7768   -1.8110   -1.3363 C.ar      1 <0>         0.1136
      5 C4          0.2423   -2.6681   -0.3856 C.ar      1 <0>        -0.1886
      6 C5          0.3496   -4.0350   -0.5494 C.ar      1 <0>        -0.0622
      7 C6          0.9928   -4.5518   -1.6670 C.ar      1 <0>        -0.1328
      8 C7          1.5274   -3.6925   -2.6187 C.ar      1 <0>        -0.0996
      9 C8          1.4143   -2.3259   -2.4555 C.ar      1 <0>        -0.1306
     10 S1          1.1310   -6.2957   -1.8771 S.3       1 <0>        -0.0339
     11 C9          2.0270   -6.4794   -3.4436 C.3       1 <0>        -0.0645
     12 C10         2.2150   -7.9438   -3.7461 C.2       1 <0>         0.2438
     13 C11         2.8864   -8.3333   -4.9038 C.2       1 <0>        -0.3631
     14 C12         3.0503   -9.6655   -5.1666 C.2       1 <0>         0.4946
     15 N1          2.5497  -10.5818   -4.2841 N.pl3     1 <0>        -0.3385
     16 C13         1.8981  -10.1533   -3.1612 C.2       1 <0>         0.3746
     17 N2          1.7490   -8.8512   -2.9128 N.2       1 <0>        -0.5540
     18 C14         1.5031  -11.3068   -2.4580 C.2       1 <0>        -0.2614
     19 C15         1.9446  -12.4139   -3.2057 C.2       1 <0>         0.1277
     20 N3          2.5576  -11.9806   -4.2754 N.2       1 <0>        -0.3093
     21 C16         0.7881  -11.3461   -1.2179 C.1       1 <0>         0.3264
     22 N4          0.2210  -11.3773   -0.2341 N.1       1 <0>        -0.4841
     23 O2          3.6974  -10.0702   -6.2828 O.3       1 <0>        -0.6438
     24 H1          1.0039    1.9031    0.0027 H         1 <0>         0.0655
     25 H2         -0.5459    1.8868   -0.8726 H         1 <0>         0.0655
     26 H3         -0.5289    1.8773    0.9072 H         1 <0>         0.0769
     27 H4          0.5293   -0.3651    0.8851 H         1 <0>         0.0611
     28 H5         -1.0205   -0.3814    0.0098 H         1 <0>         0.0611
     29 H6         -0.2578   -2.2662    0.4832 H         1 <0>         0.1288
     30 H7         -0.0661   -4.7022    0.1913 H         1 <0>         0.1300
     31 H8          2.0277   -4.0931   -3.4880 H         1 <0>         0.1305
     32 H9          1.8263   -1.6577   -3.1972 H         1 <0>         0.1308
     33 H10         1.4552   -6.0132   -4.2460 H         1 <0>         0.1091
     34 H11         3.0011   -5.9969   -3.3638 H         1 <0>         0.1091
     35 H12         3.2728   -7.5909   -5.5864 H         1 <0>         0.1430
     36 H13         1.8007  -13.4506   -2.9395 H         1 <0>         0.1907
@<TRIPOS>BOND
     1    1    2 1
     2    1   24 1
     3    1   25 1
     4    1   26 1
     5    2    3 1
     6    2   27 1
     7    2   28 1
     8    3    4 1
     9    4    9 ar
    10    4    5 ar
    11    5    6 ar
    12    5   29 1
    13    6    7 ar
    14    6   30 1
    15    7    8 ar
    16    7   10 1
    17    8    9 ar
    18    8   31 1
    19    9   32 1
    20   10   11 1
    21   11   12 1
    22   11   33 1
    23   11   34 1
    24   12   17 2
    25   12   13 1
    26   13   14 2
    27   13   35 1
    28   14   15 1
    29   14   23 1
    30   15   20 1
    31   15   16 1
    32   16   17 1
    33   16   18 2
    34   18   19 1
    35   18   21 1
    36   19   20 2
    37   19   36 1
    38   21   22 3
@<TRIPOS>MOLECULE
ZINC19107849
   26    28     0     0     0
SMALL
USER_CHARGES

@<TRIPOS>ATOM
      1 C1         -0.0414    1.3756    0.0236 C.ar      1 <0>        -0.1124
      2 C2          1.0914    2.1153   -0.0206 C.ar      1 <0>        -0.0332
      3 C3          2.3596    1.4756   -0.0657 C.ar      1 <0>         0.0550
      4 C4          2.4012    0.0177   -0.0625 C.ar      1 <0>         0.1320
      5 C5          1.1715   -0.6929   -0.0148 C.ar      1 <0>        -0.5680
      6 C6         -0.0016   -0.0187    0.0266 C.ar      1 <0>         0.0089
      7 S1          1.1737   -2.4549   -0.0091 S.o2      1 <0>         2.6064
      8 O1          2.1073   -2.8566    0.9840 O.2       1 <0>        -1.0092
      9 O2         -0.1873   -2.8627    0.0154 O.2       1 <0>        -1.0249
     10 N1          1.7896   -2.9484   -1.4649 N.2       1 <0>        -1.0549
     11 C7          1.9957   -4.3088   -1.7115 C.ar      1 <0>         0.2579
     12 C8          1.5605   -5.2661   -0.7991 C.ar      1 <0>        -0.2255
     13 C9          1.7874   -6.6021   -1.0880 C.ar      1 <0>        -0.1105
     14 C10         2.4330   -6.9393   -2.2626 C.ar      1 <0>        -0.0054
     15 N2          2.8340   -6.0089   -3.1072 N.ar      1 <0>        -0.4490
     16 C11         2.6334   -4.7264   -2.8744 C.ar      1 <0>         0.1131
     17 Cl1         3.1774   -3.5479   -4.0272 Cl        1 <0>        -0.0541
     18 N3          3.6412   -0.4715   -0.1066 N.2       1 <0>        -0.4620
     19 S2          4.6127    0.8103   -0.1467 S.3       1 <0>         0.6187
     20 N4          3.5696    2.0346   -0.1122 N.2       1 <0>        -0.5087
     21 H1         -0.9975    1.8764    0.0618 H         1 <0>         0.1462
     22 H2          1.0313    3.1937   -0.0219 H         1 <0>         0.1445
     23 H3         -0.9278   -0.5730    0.0629 H         1 <0>         0.1560
     24 H4          1.0586   -4.9745    0.1116 H         1 <0>         0.1149
     25 H5          1.4636   -7.3715   -0.4027 H         1 <0>         0.1206
     26 H6          2.6121   -7.9794   -2.4920 H         1 <0>         0.1436
@<TRIPOS>BOND
     1    1    6 ar
     2    1    2 ar
     3    1   21 1
     4    2    3 ar
     5    2   22 1
     6    3   20 2
     7    3    4 ar
     8    4    5 ar
     9    4   18 2
    10    5    6 ar
    11    5    7 1
    12    6   23 1
    13    7    8 2
    14    7    9 2
    15    7   10 1
    16   10   11 1
    17   11   16 ar
    18   11   12 ar
    19   12   13 ar
    20   12   24 1
    21   13   14 ar
    22   13   25 1
    23   14   15 ar
    24   14   26 1
    25   15   16 ar
    26   16   17 1
    27   18   19 1
    28   19   20 1
@<TRIPOS>MOLECULE
ZINC09110618
   41    43     0     0     0
SMALL
USER_CHARGES

@<TRIPOS>ATOM
      1 C1         -0.0187    1.5258    0.0104 C.3       1 <0>        -0.1371
      2 C2          0.0021   -0.0041    0.0020 C.3       1 <0>         0.0141
      3 C3          0.7421   -0.5109    1.2415 C.3       1 <0>        -0.1386
      4 C4         -1.4333   -0.5336    0.0129 C.3       1 <0>        -0.1351
      5 C5          0.7074   -0.4901   -1.2379 C.2       1 <0>         0.0870
      6 C6          2.0853   -0.4696   -1.4493 C.2       1 <0>        -0.2261
      7 C7          2.3246   -0.9997   -2.7002 C.2       1 <0>         0.1878
      8 N1          1.1126   -1.3334   -3.2327 N.pl3     1 <0>        -0.4728
      9 H1          0.9608   -1.7293   -4.1051 H         1 <0>         0.4349
     10 N2          0.1282   -1.0064   -2.2919 N.2       1 <0>        -0.2836
     11 C8          3.6397   -1.1725   -3.3408 C.2       1 <0>         0.1604
     12 N3          4.7715   -0.6199   -2.9642 N.2       1 <0>        -0.2430
     13 N4          5.7218   -0.9873   -3.7472 N.2       1 <0>        -0.3329
     14 C9          5.2585   -1.7974   -4.6732 C.2       1 <0>         0.3888
     15 S1          6.1915   -2.5524   -5.9632 S.3       1 <0>        -0.7787
     16 N5          3.9181   -1.9493   -4.4454 N.pl3     1 <0>        -0.4505
     17 C10         3.0152   -2.7296   -5.1832 C.ar      1 <0>         0.1030
     18 C11         2.3911   -3.8179   -4.5889 C.ar      1 <0>        -0.0758
     19 C12         1.5023   -4.5853   -5.3154 C.ar      1 <0>        -0.1414
     20 C13         1.2331   -4.2690   -6.6391 C.ar      1 <0>         0.1313
     21 C14         1.8565   -3.1814   -7.2334 C.ar      1 <0>        -0.1953
     22 C15         2.7411   -2.4100   -6.5061 C.ar      1 <0>        -0.0427
     23 O1          0.3585   -5.0253   -7.3541 O.3       1 <0>        -0.3155
     24 C16         0.1287   -4.6423   -8.7115 C.3       1 <0>         0.0255
     25 H2          1.0039    1.9031    0.0027 H         1 <0>         0.0619
     26 H3         -0.5459    1.8868   -0.8726 H         1 <0>         0.0555
     27 H4         -0.5289    1.8773    0.9072 H         1 <0>         0.0607
     28 H5          0.2319   -0.1594    2.1383 H         1 <0>         0.0603
     29 H6          0.7568   -1.6008    1.2356 H         1 <0>         0.0569
     30 H7          1.7647   -0.1336    1.2338 H         1 <0>         0.0634
     31 H8         -1.9605   -0.1726   -0.8702 H         1 <0>         0.0601
     32 H9         -1.4185   -1.6235    0.0069 H         1 <0>         0.0560
     33 H10        -1.9435   -0.1821    0.9097 H         1 <0>         0.0554
     34 H11         2.8309   -0.1046   -0.7584 H         1 <0>         0.1542
     35 H12         2.6012   -4.0647   -3.5587 H         1 <0>         0.1315
     36 H13         1.0168   -5.4320   -4.8531 H         1 <0>         0.1379
     37 H14         1.6469   -2.9358   -8.2640 H         1 <0>         0.1358
     38 H15         3.2230   -1.5608   -6.9676 H         1 <0>         0.1337
     39 H16        -0.5875   -5.3269   -9.1659 H         1 <0>         0.0992
     40 H17        -0.2696   -3.6281   -8.7404 H         1 <0>         0.0557
     41 H18         1.0677   -4.6798   -9.2636 H         1 <0>         0.0580
@<TRIPOS>BOND
     1    1    2 1
     2    1   25 1
     3    1   26 1
     4    1   27 1
     5    2    3 1
     6    2    4 1
     7    2    5 1
     8    3   28 1
     9    3   29 1
    10    3   30 1
    11    4   31 1
    12    4   32 1
    13    4   33 1
    14    5   10 2
    15    5    6 1
    16    6    7 2
    17    6   34 1
    18    7    8 1
    19    7   11 1
    20    8    9 1
    21    8   10 1
    22   11   16 1
    23   11   12 2
    24   12   13 1
    25   13   14 2
    26   14   15 1
    27   14   16 1
    28   16   17 1
    29   17   22 ar
    30   17   18 ar
    31   18   19 ar
    32   18   35 1
    33   19   20 ar
    34   19   36 1
    35   20   21 ar
    36   20   23 1
    37   21   22 ar
    38   21   37 1
    39   22   38 1
    40   23   24 1
    41   24   39 1
    42   24   40 1
    43   24   41 1
@<TRIPOS>MOLECULE
ZINC41281245
   44    46     0     0     0
SMALL
USER_CHARGES

@<TRIPOS>ATOM
      1 C1          0.0501    1.2936   -0.1450 C.3       1 <0>        -0.1394
      2 C2         -0.4357   -0.0677    0.3567 C.3       1 <0>         0.1108
      3 H1         -1.4789    0.0053    0.6641 H         1 <0>         0.0760
      4 C3         -0.2983   -1.1087   -0.7602 C.3       1 <0>         0.0516
      5 O1         -0.5766   -2.4070   -0.2304 O.3       1 <0>        -0.3828
      6 C4          0.3315   -2.8300    0.7894 C.3       1 <0>         0.0466
      7 C5          0.2264   -1.8772    1.9857 C.3       1 <0>         0.0373
      8 N1          0.3881   -0.4984    1.4974 N.am      1 <0>        -0.6127
      9 C6          1.2653    0.3447    2.0772 C.2       1 <0>         0.5713
     10 O2          1.3042    1.5106    1.7357 O.2       1 <0>        -0.5314
     11 C7          2.1805   -0.1486    3.1285 C.ar      1 <0>        -0.0982
     12 C8          2.6766   -1.4524    3.0699 C.ar      1 <0>        -0.2121
     13 C9          3.5305   -1.9105    4.0522 C.ar      1 <0>        -0.0672
     14 C10         3.8975   -1.0828    5.0969 C.ar      1 <0>        -0.2455
     15 C11         3.4093    0.2167    5.1645 C.ar      1 <0>         0.2762
     16 C12         2.5555    0.6886    4.1788 C.ar      1 <0>        -0.1167
     17 N2          3.7829    1.0491    6.2225 N.2       1 <0>        -1.0858
     18 S1          4.8074    0.4876    7.3960 S.o2      1 <0>         2.6032
     19 O3          4.1089   -0.5383    8.0881 O.2       1 <0>        -1.0259
     20 O4          6.0619    0.2643    6.7670 O.2       1 <0>        -1.0254
     21 C13         5.0482    1.7986    8.5483 C.ar      1 <0>        -0.6123
     22 C14         6.0780    2.7018    8.3621 C.ar      1 <0>        -0.0109
     23 C15         6.2673    3.7304    9.2656 C.ar      1 <0>        -0.1365
     24 C16         5.4260    3.8560   10.3567 C.ar      1 <0>         0.0026
     25 C17         4.3955    2.9517   10.5426 C.ar      1 <0>        -0.1368
     26 C18         4.2037    1.9269    9.6353 C.ar      1 <0>        -0.0112
     27 Cl1         5.6635    5.1473   11.4924 Cl        1 <0>        -0.0736
     28 H2          1.1260    1.2550   -0.3158 H         1 <0>         0.0651
     29 H3         -0.4573    1.5393   -1.0778 H         1 <0>         0.0451
     30 H4         -0.1721    2.0563    0.6013 H         1 <0>         0.0845
     31 H5         -1.0053   -0.8819   -1.5583 H         1 <0>         0.1024
     32 H6          0.7173   -1.0867   -1.1554 H         1 <0>         0.0556
     33 H7          0.0777   -3.8416    1.1063 H         1 <0>         0.1056
     34 H8          1.3494   -2.8143    0.3999 H         1 <0>         0.0566
     35 H9         -0.7501   -1.9868    2.4576 H         1 <0>         0.0716
     36 H10         1.0109   -2.1057    2.7071 H         1 <0>         0.1384
     37 H11         2.3917   -2.1024    2.2558 H         1 <0>         0.1187
     38 H12         3.9131   -2.9194    4.0049 H         1 <0>         0.1105
     39 H13         4.5656   -1.4473    5.8631 H         1 <0>         0.1016
     40 H14         2.1784    1.6995    4.2271 H         1 <0>         0.1234
     41 H15         6.7349    2.6035    7.5105 H         1 <0>         0.1470
     42 H16         7.0721    4.4358    9.1202 H         1 <0>         0.1381
     43 H17         3.7386    3.0490   11.3943 H         1 <0>         0.1379
     44 H18         3.3964    1.2237    9.7777 H         1 <0>         0.1469
@<TRIPOS>BOND
     1    1    2 1
     2    1   28 1
     3    1   29 1
     4    1   30 1
     5    2    3 1
     6    2    8 1
     7    2    4 1
     8    4    5 1
     9    4   31 1
    10    4   32 1
    11    5    6 1
    12    6    7 1
    13    6   33 1
    14    6   34 1
    15    7    8 1
    16    7   35 1
    17    7   36 1
    18    8    9 am
    19    9   10 2
    20    9   11 1
    21   11   16 ar
    22   11   12 ar
    23   12   13 ar
    24   12   37 1
    25   13   14 ar
    26   13   38 1
    27   14   15 ar
    28   14   39 1
    29   15   16 ar
    30   15   17 1
    31   16   40 1
    32   17   18 1
    33   18   19 2
    34   18   20 2
    35   18   21 1
    36   21   26 ar
    37   21   22 ar
    38   22   23 ar
    39   22   41 1
    40   23   24 ar
    41   23   42 1
    42   24   25 ar
    43   24   27 1
    44   25   26 ar
    45   25   43 1
    46   26   44 1
@<TRIPOS>MOLECULE
ZINC07052258
   42    44     0     0     0
SMALL
USER_CHARGES

@<TRIPOS>ATOM
      1 C1         -0.0184    1.5028    0.0103 C.3       1 <0>        -0.1118
      2 C2          0.0021   -0.0041    0.0020 C.2       1 <0>         0.1839
      3 C3          0.0080   -0.8237   -1.1409 C.2       1 <0>        -0.7830
      4 C4          0.0273   -2.1079   -0.7353 C.2       1 <0>         0.1932
      5 O1          0.0335   -2.1190    0.6064 O.3       1 <0>        -0.0913
      6 N1          0.0230   -0.7748    1.0524 N.2       1 <0>        -0.3363
      7 C5          0.0393   -3.3197   -1.6311 C.3       1 <0>        -0.1250
      8 S1         -0.0076   -0.2673   -2.8126 S.o2      1 <0>         2.6310
      9 O2         -0.5474   -1.3282   -3.5887 O.2       1 <0>        -1.0304
     10 O3         -0.5765    1.0348   -2.8020 O.2       1 <0>        -1.0257
     11 N2          1.5698   -0.0907   -3.2847 N.2       1 <0>        -1.0918
     12 C6          1.8678    0.3445   -4.5809 C.ar      1 <0>         0.2537
     13 C7          0.8410    0.6339   -5.4697 C.ar      1 <0>        -0.2295
     14 C8          1.1359    1.0638   -6.7486 C.ar      1 <0>        -0.0880
     15 C9          2.4573    1.2065   -7.1453 C.ar      1 <0>         0.0149
     16 C10         3.4836    0.9172   -6.2582 C.ar      1 <0>        -0.1568
     17 C11         3.1904    0.4927   -4.9771 C.ar      1 <0>        -0.1493
     18 O4          2.7468    1.6299   -8.4048 O.3       1 <0>        -0.3195
     19 C12         4.1290    1.7545   -8.7457 C.3       1 <0>         0.1042
     20 C13         4.2542    2.2316  -10.1697 C.ar      1 <0>        -0.0850
     21 C14         4.3145    1.3153  -11.2029 C.ar      1 <0>        -0.0973
     22 C15         4.4293    1.7529  -12.5091 C.ar      1 <0>        -0.1255
     23 C16         4.4833    3.1070  -12.7821 C.ar      1 <0>        -0.1181
     24 C17         4.4220    4.0234  -11.7490 C.ar      1 <0>        -0.1255
     25 C18         4.3029    3.5858  -10.4431 C.ar      1 <0>        -0.0973
     26 H1          1.0042    1.8801    0.0026 H         1 <0>         0.0947
     27 H2         -0.5455    1.8639   -0.8728 H         1 <0>         0.1215
     28 H3         -0.5286    1.8543    0.9071 H         1 <0>         0.0792
     29 H4          1.0697   -3.5980   -1.8521 H         1 <0>         0.1063
     30 H5         -0.4610   -4.1477   -1.1290 H         1 <0>         0.0883
     31 H6         -0.4822   -3.0898   -2.5603 H         1 <0>         0.1361
     32 H7         -0.1880    0.5225   -5.1612 H         1 <0>         0.1042
     33 H8          0.3374    1.2886   -7.4402 H         1 <0>         0.1112
     34 H9          4.5122    1.0283   -6.5680 H         1 <0>         0.1107
     35 H10         3.9896    0.2720   -4.2850 H         1 <0>         0.1150
     36 H11         4.6044    2.4734   -8.0785 H         1 <0>         0.0632
     37 H12         4.6173    0.7854   -8.6430 H         1 <0>         0.0632
     38 H13         4.2723    0.2574  -10.9896 H         1 <0>         0.1243
     39 H14         4.4772    1.0370  -13.3163 H         1 <0>         0.1220
     40 H15         4.5737    3.4489  -13.8026 H         1 <0>         0.1201
     41 H16         4.4645    5.0812  -11.9623 H         1 <0>         0.1220
     42 H17         4.2513    4.3018   -9.6363 H         1 <0>         0.1243
@<TRIPOS>BOND
     1    1    2 1
     2    1   26 1
     3    1   27 1
     4    1   28 1
     5    2    6 2
     6    2    3 1
     7    3    4 2
     8    3    8 1
     9    4    5 1
    10    4    7 1
    11    5    6 1
    12    7   29 1
    13    7   30 1
    14    7   31 1
    15    8    9 2
    16    8   10 2
    17    8   11 1
    18   11   12 1
    19   12   17 ar
    20   12   13 ar
    21   13   14 ar
    22   13   32 1
    23   14   15 ar
    24   14   33 1
    25   15   16 ar
    26   15   18 1
    27   16   17 ar
    28   16   34 1
    29   17   35 1
    30   18   19 1
    31   19   20 1
    32   19   36 1
    33   19   37 1
    34   20   25 ar
    35   20   21 ar
    36   21   22 ar
    37   21   38 1
    38   22   23 ar
    39   22   39 1
    40   23   24 ar
    41   23   40 1
    42   24   25 ar
    43   24   41 1
    44   25   42 1
@<TRIPOS>MOLECULE
ZINC61409236
   49    51     0     0     0
SMALL
USER_CHARGES

@<TRIPOS>ATOM
      1 C1         -0.8566    0.2615   -0.9894 C.3       1 <0>        -0.1104
      2 C2         -0.4105   -1.1558   -0.7379 C.ar      1 <0>        -0.0964
      3 C3         -0.0821   -1.9740   -1.8042 C.ar      1 <0>        -0.1148
      4 C4          0.3265   -3.2726   -1.5808 C.ar      1 <0>        -0.0858
      5 C5          0.4087   -3.7604   -0.2757 C.ar      1 <0>         0.0202
      6 C6          0.0763   -2.9296    0.7955 C.ar      1 <0>        -0.1223
      7 C7         -0.3258   -1.6313    0.5587 C.ar      1 <0>        -0.1136
      8 C8          0.8453   -5.1511   -0.0290 C.2       1 <0>         0.1522
      9 N1          0.8608   -6.1305   -0.9027 N.2       1 <0>        -0.2713
     10 N2          1.2998   -7.2045   -0.3501 N.2       1 <0>        -0.3401
     11 C9          1.5916   -6.9763    0.9111 C.2       1 <0>         0.3896
     12 N3          1.3178   -5.6614    1.1582 N.pl3     1 <0>        -0.4741
     13 C10         1.4890   -4.9443    2.4242 C.3       1 <0>         0.1002
     14 C11         0.2342   -5.0743    3.2487 C.2       1 <0>         0.5100
     15 O1         -0.7100   -5.7038    2.8210 O.2       1 <0>        -0.5040
     16 N4          0.1614   -4.4908    4.4615 N.am      1 <0>        -0.6064
     17 C12        -1.0583   -4.6171    5.2630 C.3       1 <0>         0.1635
     18 C13        -1.0152   -5.9054    6.0438 C.ar      1 <0>        -0.1587
     19 C14        -1.4037   -7.0980    5.4525 C.ar      1 <0>        -0.0423
     20 C15        -1.3476   -8.2584    6.2089 C.ar      1 <0>        -0.1685
     21 C16        -0.9094   -8.1886    7.5180 C.ar      1 <0>         0.0973
     22 N5         -0.5480   -7.0365    8.0477 N.ar      1 <0>        -0.4912
     23 C17        -0.5826   -5.9140    7.3561 C.ar      1 <0>         0.1052
     24 C18         1.3020   -3.7303    4.9782 C.3       1 <0>         0.1254
     25 C19         0.8667   -2.2927    5.2690 C.3       1 <0>        -0.1634
     26 C20         1.8069   -4.3811    6.2676 C.3       1 <0>        -0.1682
     27 S1          2.2240   -8.1472    2.0660 S.3       1 <0>        -0.7982
     28 H1          0.0122    0.9198   -0.9977 H         1 <0>         0.0674
     29 H2         -1.3639    0.3173   -1.9526 H         1 <0>         0.0644
     30 H3         -1.5407    0.5727   -0.1999 H         1 <0>         0.0631
     31 H4         -0.1461   -1.5953   -2.8136 H         1 <0>         0.1242
     32 H5          0.5820   -3.9105   -2.4141 H         1 <0>         0.1341
     33 H6          0.1375   -3.3011    1.8078 H         1 <0>         0.1166
     34 H7         -0.5791   -0.9861    1.3869 H         1 <0>         0.1205
     35 H8          2.3295   -5.3701    2.9721 H         1 <0>         0.1250
     36 H9          1.6833   -3.8911    2.2218 H         1 <0>         0.1103
     37 H10        -1.1283   -3.7763    5.9531 H         1 <0>         0.0899
     38 H11        -1.9270   -4.6202    4.6047 H         1 <0>         0.0898
     39 H12        -1.7423   -7.1222    4.4273 H         1 <0>         0.1416
     40 H13        -1.6429   -9.2050    5.7809 H         1 <0>         0.1338
     41 H14        -0.8627   -9.0881    8.1139 H         1 <0>         0.1528
     42 H15        -0.2737   -4.9901    7.8224 H         1 <0>         0.1514
     43 H16         2.1010   -3.7251    4.2368 H         1 <0>         0.0911
     44 H17         0.0677   -2.2979    6.0104 H         1 <0>         0.0619
     45 H18         1.7154   -1.7269    5.6534 H         1 <0>         0.0712
     46 H19         0.5071   -1.8291    4.3504 H         1 <0>         0.0613
     47 H20         1.9978   -5.4394    6.0898 H         1 <0>         0.0644
     48 H21         2.7291   -3.8936    6.5836 H         1 <0>         0.0681
     49 H22         1.0534   -4.2739    7.0478 H         1 <0>         0.0635
@<TRIPOS>BOND
     1    1    2 1
     2    1   28 1
     3    1   29 1
     4    1   30 1
     5    2    7 ar
     6    2    3 ar
     7    3    4 ar
     8    3   31 1
     9    4    5 ar
    10    4   32 1
    11    5    6 ar
    12    5    8 1
    13    6    7 ar
    14    6   33 1
    15    7   34 1
    16    8   12 1
    17    8    9 2
    18    9   10 1
    19   10   11 2
    20   11   27 1
    21   11   12 1
    22   12   13 1
    23   13   14 1
    24   13   35 1
    25   13   36 1
    26   14   15 2
    27   14   16 am
    28   16   17 1
    29   16   24 1
    30   17   18 1
    31   17   37 1
    32   17   38 1
    33   18   23 ar
    34   18   19 ar
    35   19   20 ar
    36   19   39 1
    37   20   21 ar
    38   20   40 1
    39   21   22 ar
    40   21   41 1
    41   22   23 ar
    42   23   42 1
    43   24   25 1
    44   24   26 1
    45   24   43 1
    46   25   44 1
    47   25   45 1
    48   25   46 1
    49   26   47 1
    50   26   48 1
    51   26   49 1
@<TRIPOS>MOLECULE
ZINC65254771
   41    43     0     0     0
SMALL
USER_CHARGES

@<TRIPOS>ATOM
      1 C1         -0.0187    1.5258    0.0104 C.3       1 <0>        -0.1737
      2 C2          0.0021   -0.0041    0.0020 C.3       1 <0>         0.1443
      3 C3          0.7421   -0.5109    1.2415 C.3       1 <0>        -0.1698
      4 N1         -1.3723   -0.5112    0.0124 N.am      1 <0>        -0.6236
      5 C4         -1.8254   -1.3533   -1.0886 C.3       1 <0>         0.1074
      6 C5         -2.6925   -2.5205   -0.6182 C.3       1 <0>         0.0868
      7 N2         -3.6972   -2.0244    0.3273 N.pl3     1 <0>        -0.4371
      8 C6         -4.9327   -2.4824    0.5960 C.2       1 <0>         0.1524
      9 C7         -5.4848   -1.7094    1.5672 C.2       1 <0>        -0.6993
     10 C8         -4.5530   -0.7198    1.9141 C.2       1 <0>        -0.0004
     11 C9         -3.4535   -0.9219    1.1340 C.2       1 <0>        -0.0899
     12 C10        -2.1847   -0.1893    1.0469 C.2       1 <0>         0.6068
     13 O1         -1.8811    0.6643    1.8594 O.2       1 <0>        -0.5111
     14 S1         -7.0888   -1.9136    2.2674 S.o2      1 <0>         2.6334
     15 O2         -7.4703   -0.6463    2.7849 O.2       1 <0>        -1.0274
     16 O3         -7.8674   -2.6084    1.3030 O.2       1 <0>        -1.0348
     17 N3         -6.9302   -2.9273    3.5672 N.2       1 <0>        -1.0703
     18 C11        -8.0537   -3.2729    4.3258 C.ar      1 <0>         0.2855
     19 C12        -9.3030   -2.7711    3.9866 C.ar      1 <0>        -0.2334
     20 C13       -10.4111   -3.1135    4.7370 C.ar      1 <0>        -0.0865
     21 C14       -10.2770   -3.9563    5.8275 C.ar      1 <0>        -0.0148
     22 C15        -9.0326   -4.4583    6.1683 C.ar      1 <0>        -0.0974
     23 C16        -7.9219   -4.1235    5.4167 C.ar      1 <0>        -0.0741
     24 Cl1        -6.3627   -4.7587    5.8399 Cl        1 <0>        -0.0784
     25 F1        -11.3622   -4.2889    6.5602 F         1 <0>        -0.1588
     26 H1          1.0039    1.9031    0.0027 H         1 <0>         0.0621
     27 H2         -0.5459    1.8868   -0.8726 H         1 <0>         0.0526
     28 H3         -0.5289    1.8773    0.9072 H         1 <0>         0.0867
     29 H4          0.5123   -0.3556   -0.8948 H         1 <0>         0.0849
     30 H5          0.2319   -0.1594    2.1383 H         1 <0>         0.0737
     31 H6          0.7568   -1.6008    1.2356 H         1 <0>         0.0541
     32 H7          1.7647   -0.1336    1.2338 H         1 <0>         0.0669
     33 H8         -2.4025   -0.7437   -1.7839 H         1 <0>         0.0725
     34 H9         -0.9543   -1.7497   -1.6103 H         1 <0>         0.1021
     35 H10        -3.1912   -2.9724   -1.4756 H         1 <0>         0.1114
     36 H11        -2.0659   -3.2646   -0.1265 H         1 <0>         0.0923
     37 H12        -5.4080   -3.3263    0.1181 H         1 <0>         0.1843
     38 H13        -4.6823    0.0541    2.6563 H         1 <0>         0.1590
     39 H14        -9.4084   -2.1131    3.1367 H         1 <0>         0.1147
     40 H15       -11.3829   -2.7231    4.4731 H         1 <0>         0.1205
     41 H16        -8.9304   -5.1155    7.0192 H         1 <0>         0.1266
@<TRIPOS>BOND
     1    1    2 1
     2    1   26 1
     3    1   27 1
     4    1   28 1
     5    2    3 1
     6    2    4 1
     7    2   29 1
     8    3   30 1
     9    3   31 1
    10    3   32 1
    11    4   12 am
    12    4    5 1
    13    5    6 1
    14    5   33 1
    15    5   34 1
    16    6    7 1
    17    6   35 1
    18    6   36 1
    19    7   11 1
    20    7    8 1
    21    8    9 2
    22    8   37 1
    23    9   10 1
    24    9   14 1
    25   10   11 2
    26   10   38 1
    27   11   12 1
    28   12   13 2
    29   14   15 2
    30   14   16 2
    31   14   17 1
    32   17   18 1
    33   18   23 ar
    34   18   19 ar
    35   19   20 ar
    36   19   39 1
    37   20   21 ar
    38   20   40 1
    39   21   22 ar
    40   21   25 1
    41   22   23 ar
    42   22   41 1
    43   23   24 1
@<TRIPOS>MOLECULE
ZINC66255289
   42    45     0     0     0
SMALL
USER_CHARGES

@<TRIPOS>ATOM
      1 C1         -0.0178    1.4608    0.0101 C.3       1 <0>         0.0963
      2 N1          0.0021   -0.0041    0.0020 N.pl3     1 <0>        -0.3744
      3 C2          0.0078   -0.7920   -1.0936 C.2       1 <0>         0.1691
      4 C3          0.0272   -2.0789   -0.6760 C.2       1 <0>        -0.7579
      5 C4          0.0335   -2.0775    0.7227 C.2       1 <0>         0.1343
      6 N2          0.0246   -0.8342    1.1302 N.2       1 <0>        -0.3048
      7 S1          0.0410   -3.5046   -1.7112 S.o2      1 <0>         2.6516
      8 O1         -0.4917   -4.5722   -0.9393 O.2       1 <0>        -1.0101
      9 O2         -0.5215   -3.1090   -2.9547 O.2       1 <0>        -1.0165
     10 N3          1.6266   -3.8796   -2.0070 N.2       1 <0>        -1.0180
     11 C5          1.9443   -4.9692   -2.8027 C.2       1 <0>         0.4392
     12 N4          3.1354   -5.4169   -3.1388 N.2       1 <0>        -0.5990
     13 C6          3.2711   -6.4794   -3.9127 C.2       1 <0>         0.1619
     14 C7          2.1343   -7.0798   -4.3395 C.2       1 <0>        -0.2765
     15 S2          0.9007   -6.0453   -3.5678 S.3       1 <0>        -0.1190
     16 C8          1.9592   -8.2908   -5.2192 C.3       1 <0>         0.0327
     17 C9          1.9112   -9.5305   -4.3637 C.ar      1 <0>        -0.0727
     18 C10         3.0792  -10.2029   -4.0557 C.ar      1 <0>        -0.0863
     19 C11         3.0364  -11.3396   -3.2709 C.ar      1 <0>        -0.1528
     20 C12         1.8231  -11.8049   -2.7930 C.ar      1 <0>         0.0825
     21 C13         0.6539  -11.1307   -3.1021 C.ar      1 <0>        -0.1508
     22 C14         0.6997   -9.9912   -3.8827 C.ar      1 <0>        -0.0827
     23 F1          1.7800  -12.9163   -2.0260 F         1 <0>        -0.1468
     24 C15         4.6303   -6.9997   -4.3036 C.3       1 <0>        -0.0843
     25 C16         5.8484   -6.3823   -3.6136 C.3       1 <0>        -0.1625
     26 C17         5.5520   -6.0559   -5.0786 C.3       1 <0>        -0.1677
     27 H1          1.0048    1.8381    0.0023 H         1 <0>         0.0781
     28 H2         -0.5450    1.8219   -0.8730 H         1 <0>         0.0897
     29 H3         -0.5280    1.8123    0.9069 H         1 <0>         0.0904
     30 H4         -0.0017   -0.4556   -2.1198 H         1 <0>         0.1896
     31 H5          0.0482   -2.9516    1.3568 H         1 <0>         0.1960
     32 H6          1.0293   -8.2006   -5.7807 H         1 <0>         0.0770
     33 H7          2.7972   -8.3603   -5.9128 H         1 <0>         0.0845
     34 H8          4.0254   -9.8399   -4.4289 H         1 <0>         0.1304
     35 H9          3.9490  -11.8649   -3.0308 H         1 <0>         0.1306
     36 H10        -0.2931  -11.4930   -2.7301 H         1 <0>         0.1315
     37 H11        -0.2116   -9.4626   -4.1202 H         1 <0>         0.1318
     38 H12         4.6747   -8.0607   -4.5494 H         1 <0>         0.1093
     39 H13         5.6666   -5.5998   -2.8768 H         1 <0>         0.1082
     40 H14         6.6944   -7.0372   -3.4051 H         1 <0>         0.0856
     41 H15         6.2030   -6.4960   -5.8340 H         1 <0>         0.0890
     42 H16         5.1752   -5.0586   -5.3058 H         1 <0>         0.0937
@<TRIPOS>BOND
     1    1    2 1
     2    1   27 1
     3    1   28 1
     4    1   29 1
     5    2    6 1
     6    2    3 1
     7    3    4 2
     8    3   30 1
     9    4    5 1
    10    4    7 1
    11    5    6 2
    12    5   31 1
    13    7    8 2
    14    7    9 2
    15    7   10 1
    16   10   11 1
    17   11   15 1
    18   11   12 2
    19   12   13 1
    20   13   14 2
    21   13   24 1
    22   14   15 1
    23   14   16 1
    24   16   17 1
    25   16   32 1
    26   16   33 1
    27   17   22 ar
    28   17   18 ar
    29   18   19 ar
    30   18   34 1
    31   19   20 ar
    32   19   35 1
    33   20   21 ar
    34   20   23 1
    35   21   22 ar
    36   21   36 1
    37   22   37 1
    38   24   26 1
    39   24   25 1
    40   24   38 1
    41   25   26 1
    42   25   39 1
    43   25   40 1
    44   26   41 1
    45   26   42 1
@<TRIPOS>MOLECULE
ZINC19764712
   33    35     0     0     0
SMALL
USER_CHARGES
2-methoxyethyl-oxo-BLAHcarboxylic acid
@<TRIPOS>ATOM
      1 C1         -0.1136    1.1523   -2.3859 C.3       1 <0>         0.0324
      2 O1         -0.7038    1.5592   -1.1497 O.3       1 <0>        -0.3978
      3 C2         -0.0127    1.0858    0.0080 C.3       1 <0>         0.0751
      4 C3         -0.7288    1.5792    1.2668 C.3       1 <0>        -0.0685
      5 C4          0.0000    1.0800    2.4877 C.2       1 <0>         0.4012
      6 N1         -0.4644    1.4073    3.7210 N.am      1 <0>        -0.6531
      7 H1         -1.3623    2.0346    3.8220 H         1 <0>         0.4391
      8 C5          0.1534    0.9786    4.8381 C.2       1 <0>         0.5435
      9 O2         -0.2769    1.2767    5.9389 O.2       1 <0>        -0.4587
     10 C6          1.3297    0.1710    4.7085 C.2       1 <0>        -0.1899
     11 C7          2.1615   -0.3977    5.7797 C.2       1 <0>        -0.0204
     12 C8          3.2221   -1.1309    5.4005 C.2       1 <0>        -0.2197
     13 S1          3.1851   -1.1075    3.6229 S.3       1 <0>         0.1385
     14 C9          1.7358   -0.1110    3.3976 C.2       1 <0>         0.0801
     15 N2          1.0698    0.3450    2.3395 N.2       1 <0>        -0.4971
     16 C10         3.9947   -1.6631    6.5775 C.3       1 <0>        -0.0292
     17 C11         3.0266   -1.5218    7.7726 C.3       1 <0>        -0.0818
     18 C12         2.1249   -0.3605    7.3101 C.3       1 <0>        -0.0868
     19 H2          2.4508    0.6117    7.7083 H         1 <0>         0.0892
     20 C13         0.7158   -0.5663    7.8029 C.2       1 <0>         0.4734
     21 O3         -0.1832   -0.7286    7.0121 O.co2     1 <0>        -0.6126
     22 O4          0.4593   -0.5694    9.1205 O.co2     1 <0>        -0.7795
     23 H3         -0.7019    1.5555   -3.2233 H         1 <0>         0.0856
     24 H4         -0.1008    0.0538   -2.4421 H         1 <0>         0.0430
     25 H5          0.9163    1.5344   -2.4438 H         1 <0>         0.0426
     26 H6          0.0022   -0.0141    0.0019 H         1 <0>         0.0646
     27 H7          1.0193    1.4665    0.0002 H         1 <0>         0.0642
     28 H8         -0.7437    2.6791    1.2728 H         1 <0>         0.1087
     29 H9         -1.7608    1.1985    1.2746 H         1 <0>         0.1093
     30 H10         4.2675   -2.7126    6.3928 H         1 <0>         0.0729
     31 H11         4.9080   -1.0660    6.7169 H         1 <0>         0.0791
     32 H12         2.4791   -2.4653    7.9145 H         1 <0>         0.0729
     33 H13         3.5991   -1.2897    8.6828 H         1 <0>         0.0800
@<TRIPOS>BOND
     1    1    2 1
     2    1   23 1
     3    1   24 1
     4    1   25 1
     5    2    3 1
     6    3    4 1
     7    3   26 1
     8    3   27 1
     9    4    5 1
    10    4   28 1
    11    4   29 1
    12    5   15 2
    13    5    6 1
    14    6    7 1
    15    6    8 am
    16    8    9 2
    17    8   10 1
    18   10   14 2
    19   10   11 1
    20   11   18 1
    21   11   12 2
    22   12   13 1
    23   12   16 1
    24   13   14 1
    25   14   15 1
    26   16   17 1
    27   16   30 1
    28   16   31 1
    29   17   18 1
    30   17   32 1
    31   17   33 1
    32   18   19 1
    33   18   20 1
    34   20   21 2
    35   20   22 1
@<TRIPOS>MOLECULE
ZINC37796346
   39    41     0     0     0
SMALL
USER_CHARGES

@<TRIPOS>ATOM
      1 C1          4.6494    2.6212   -2.4678 C.3       1 <0>        -0.1490
      2 C2          5.5913    1.4671   -2.8168 C.3       1 <0>        -0.1518
      3 C3          4.3424    1.2067   -1.9721 C.3       1 <0>        -0.1956
      4 C4          3.2005    0.4725   -2.6264 C.2       1 <0>         0.5430
      5 O1          2.5642    1.0056   -3.5107 O.2       1 <0>        -0.5416
      6 N1          2.8863   -0.7763   -2.2289 N.am      1 <0>        -0.6077
      7 C5          3.6439   -1.4329   -1.1548 C.3       1 <0>         0.1133
      8 C6          4.1421   -2.7901   -1.6613 C.3       1 <0>        -0.1423
      9 C7          2.9543   -3.6036   -2.1806 C.3       1 <0>         0.1518
     10 C8          2.2984   -2.8633   -3.3484 C.3       1 <0>        -0.1451
     11 C9          1.7757   -1.5048   -2.8572 C.3       1 <0>         0.1159
     12 N2          3.4226   -4.9151   -2.6354 N.am      1 <0>        -0.7263
     13 C10         2.5752   -5.9630   -2.6568 C.2       1 <0>         0.5601
     14 O2          1.4250   -5.8201   -2.2996 O.2       1 <0>        -0.5320
     15 C11         3.0568   -7.3121   -3.1246 C.3       1 <0>        -0.1855
     16 H1          3.8991   -7.7282   -2.5719 H         1 <0>         0.1139
     17 C12         2.0083   -8.2910   -3.6567 C.3       1 <0>        -0.1346
     18 C13         2.9795   -7.6090   -4.6235 C.3       1 <0>        -0.1889
     19 H2          3.7708   -8.2208   -5.0569 H         1 <0>         0.0984
     20 C14         2.4276   -6.5300   -5.5191 C.2       1 <0>         0.5130
     21 O3          3.1586   -5.9650   -6.3147 O.co2     1 <0>        -0.6953
     22 O4          1.2500   -6.2220   -5.4481 O.co2     1 <0>        -0.6770
     23 H3          4.9949    3.3482   -1.7328 H         1 <0>         0.1016
     24 H4          4.0253    3.0209   -3.2672 H         1 <0>         0.1074
     25 H5          5.5869    1.1075   -3.8458 H         1 <0>         0.1003
     26 H6          6.5565    1.4348   -2.3114 H         1 <0>         0.1039
     27 H7          4.4860    1.0030   -0.9110 H         1 <0>         0.1239
     28 H8          4.4953   -0.8120   -0.8759 H         1 <0>         0.0901
     29 H9          2.9977   -1.5806   -0.2895 H         1 <0>         0.0722
     30 H10         4.8585   -2.6366   -2.4683 H         1 <0>         0.0747
     31 H11         4.6230   -3.3289   -0.8449 H         1 <0>         0.0814
     32 H12         2.2268   -3.7356   -1.3798 H         1 <0>         0.0852
     33 H13         3.0322   -2.7091   -4.1395 H         1 <0>         0.0702
     34 H14         1.4670   -3.4542   -3.7328 H         1 <0>         0.0916
     35 H15         0.9803   -1.6582   -2.1279 H         1 <0>         0.0700
     36 H16         1.3941   -0.9314   -3.7019 H         1 <0>         0.0950
     37 H17         4.3425   -5.0294   -2.9210 H         1 <0>         0.3981
     38 H18         2.1610   -9.3511   -3.4544 H         1 <0>         0.0874
     39 H19         0.9701   -7.9592   -3.6684 H         1 <0>         0.1101
@<TRIPOS>BOND
     1    1    3 1
     2    1    2 1
     3    1   23 1
     4    1   24 1
     5    2    3 1
     6    2   25 1
     7    2   26 1
     8    3    4 1
     9    3   27 1
    10    4    5 2
    11    4    6 am
    12    6   11 1
    13    6    7 1
    14    7    8 1
    15    7   28 1
    16    7   29 1
    17    8    9 1
    18    8   30 1
    19    8   31 1
    20    9   10 1
    21    9   12 1
    22    9   32 1
    23   10   11 1
    24   10   33 1
    25   10   34 1
    26   11   35 1
    27   11   36 1
    28   12   13 am
    29   12   37 1
    30   13   14 2
    31   13   15 1
    32   15   16 1
    33   15   18 1
    34   15   17 1
    35   17   18 1
    36   17   38 1
    37   17   39 1
    38   18   19 1
    39   18   20 1
    40   20   21 2
    41   20   22 1
@<TRIPOS>MOLECULE
ZINC43428514
   43    44     0     0     0
SMALL
USER_CHARGES

@<TRIPOS>ATOM
      1 C1          0.0068    1.5261   -0.0046 C.3       1 <0>        -0.1467
      2 C2          0.0185   -0.0039   -0.0077 C.3       1 <0>        -0.1337
      3 C3          0.7584   -0.5107    1.2319 C.3       1 <0>        -0.0959
      4 C4          0.7701   -2.0406    1.2288 C.3       1 <0>         0.1145
      5 C5         -0.6683   -2.5617    1.2450 C.3       1 <0>        -0.1398
      6 C6          1.4696   -2.5352   -0.0111 C.2       1 <0>         0.5046
      7 O1          2.4675   -3.2287    0.0876 O.co2     1 <0>        -0.6753
      8 O2          1.0376   -2.2417   -1.1128 O.co2     1 <0>        -0.6943
      9 N1          1.4787   -2.5259    2.4157 N.am      1 <0>        -0.7206
     10 C7          1.6145   -3.8504    2.6248 C.2       1 <0>         0.7251
     11 O3          1.1489   -4.6425    1.8285 O.2       1 <0>        -0.5553
     12 N2          2.2664   -4.2969    3.7167 N.am      1 <0>        -0.6365
     13 C8          2.9357   -3.3872    4.6754 C.3       1 <0>         0.0845
     14 C9          4.3532   -3.8700    4.9782 C.3       1 <0>         0.0491
     15 O4          4.3967   -5.2870    5.2262 O.3       1 <0>        -0.3682
     16 C10         3.8923   -6.0123    4.1261 C.3       1 <0>         0.0580
     17 H1          4.3815   -5.6807    3.2102 H         1 <0>         0.0694
     18 C11         2.3629   -5.7112    4.0504 C.3       1 <0>         0.1330
     19 H2          1.8970   -5.8969    5.0181 H         1 <0>         0.0704
     20 C12         1.8647   -6.7162    3.0207 C.3       1 <0>        -0.1346
     21 C13         2.8078   -7.9394    3.1557 C.3       1 <0>        -0.1198
     22 C14         3.9027   -7.5386    4.1946 C.3       1 <0>        -0.1075
     23 H3          1.0315    1.8973   -0.0162 H         1 <0>         0.0463
     24 H4         -0.5204    1.8872   -0.8877 H         1 <0>         0.0481
     25 H5         -0.4992    1.8838    0.8922 H         1 <0>         0.0407
     26 H6         -1.0063   -0.3751    0.0039 H         1 <0>         0.0568
     27 H7          0.5244   -0.3615   -0.9044 H         1 <0>         0.1091
     28 H8          1.7832   -0.1395    1.2203 H         1 <0>         0.0530
     29 H9          0.2525   -0.1530    2.1286 H         1 <0>         0.0459
     30 H10        -1.1955   -2.2006    0.3619 H         1 <0>         0.0646
     31 H11        -0.6600   -3.6517    1.2428 H         1 <0>         0.0685
     32 H12        -1.1742   -2.2040    2.1418 H         1 <0>         0.0318
     33 H13         1.8501   -1.8940    3.0510 H         1 <0>         0.3765
     34 H14         2.9812   -2.3855    4.2480 H         1 <0>         0.0847
     35 H15         2.3616   -3.3560    5.6014 H         1 <0>         0.0669
     36 H16         4.9957   -3.6386    4.1287 H         1 <0>         0.0574
     37 H17         4.7267   -3.3444    5.8570 H         1 <0>         0.1023
     38 H18         0.8371   -7.0051    3.2410 H         1 <0>         0.0642
     39 H19         1.9331   -6.2951    2.0177 H         1 <0>         0.1230
     40 H20         2.2483   -8.8066    3.5064 H         1 <0>         0.0665
     41 H21         3.2764   -8.1585    2.1963 H         1 <0>         0.0678
     42 H22         4.8792   -7.9312    3.9112 H         1 <0>         0.0726
     43 H23         3.6210   -7.8825    5.1898 H         1 <0>         0.0728
@<TRIPOS>BOND
     1    1    2 1
     2    1   23 1
     3    1   24 1
     4    1   25 1
     5    2    3 1
     6    2   26 1
     7    2   27 1
     8    3    4 1
     9    3   28 1
    10    3   29 1
    11    4    5 1
    12    4    6 1
    13    4    9 1
    14    5   30 1
    15    5   31 1
    16    5   32 1
    17    6    7 2
    18    6    8 1
    19    9   10 am
    20    9   33 1
    21   10   11 2
    22   10   12 am
    23   12   18 1
    24   12   13 1
    25   13   14 1
    26   13   34 1
    27   13   35 1
    28   14   15 1
    29   14   36 1
    30   14   37 1
    31   15   16 1
    32   16   17 1
    33   16   22 1
    34   16   18 1
    35   18   19 1
    36   18   20 1
    37   20   21 1
    38   20   38 1
    39   20   39 1
    40   21   22 1
    41   21   40 1
    42   21   41 1
    43   22   42 1
    44   22   43 1
@<TRIPOS>MOLECULE
ZINC48916844
   42    42     0     0     0
SMALL
USER_CHARGES

@<TRIPOS>ATOM
      1 C1         -0.0169    1.5234    0.0131 C.3       1 <0>        -0.1473
      2 C2          0.0020   -0.0064    0.0031 C.3       1 <0>        -0.1235
      3 C3         -1.4341   -0.5343    0.0125 C.3       1 <0>         0.1249
      4 H1         -1.9892   -0.1030   -0.8205 H         1 <0>         0.1066
      5 C4         -1.4233   -2.0623   -0.1102 C.3       1 <0>         0.0556
      6 O1         -0.8574   -2.6258    1.0755 O.3       1 <0>        -0.3760
      7 C5         -1.5996   -2.3510    2.2660 C.3       1 <0>         0.0745
      8 H2         -2.6207   -2.7145    2.1505 H         1 <0>         0.0614
      9 C6         -1.6194   -0.8377    2.5105 C.3       1 <0>         0.0853
     10 N1         -2.0860   -0.1745    1.2817 N.am      1 <0>        -0.6318
     11 C7         -3.0808    0.7342    1.3175 C.2       1 <0>         0.7093
     12 O2         -3.3912    1.3359    0.3076 O.2       1 <0>        -0.5849
     13 N2         -3.7316    0.9757    2.4728 N.am      1 <0>        -0.7115
     14 C8         -4.8844    1.8796    2.4889 C.3       1 <0>         0.0935
     15 H3         -5.4420    1.7739    1.5583 H         1 <0>         0.0762
     16 C9         -5.7916    1.5280    3.6697 C.3       1 <0>        -0.0863
     17 C10        -5.0492    1.7955    4.9805 C.3       1 <0>        -0.1406
     18 C11        -7.0560    2.3878    3.6152 C.3       1 <0>        -0.1395
     19 C12        -4.4058    3.3017    2.6291 C.2       1 <0>         0.4992
     20 O3         -5.0518    4.2132    2.1409 O.co2     1 <0>        -0.6955
     21 O4         -3.3727    3.5407    3.2307 O.co2     1 <0>        -0.6910
     22 C13        -0.9385   -3.0530    3.4539 C.3       1 <0>        -0.1430
     23 H4          1.0061    1.8994    0.0064 H         1 <0>         0.0478
     24 H5         -0.5431    1.8861   -0.8699 H         1 <0>         0.0549
     25 H6         -0.5272    1.8746    0.9100 H         1 <0>         0.0586
     26 H7          0.5122   -0.3576   -0.8938 H         1 <0>         0.0676
     27 H8          0.5282   -0.3691    0.8861 H         1 <0>         0.0654
     28 H9         -2.4438   -2.4247   -0.2344 H         1 <0>         0.0535
     29 H10        -0.8250   -2.3540   -0.9734 H         1 <0>         0.1035
     30 H11        -2.2977   -0.6074    3.3320 H         1 <0>         0.0841
     31 H12        -0.6150   -0.4923    2.7553 H         1 <0>         0.0741
     32 H13        -3.4367    0.5511    3.2935 H         1 <0>         0.3852
     33 H14        -6.0660    0.4745    3.6160 H         1 <0>         0.0574
     34 H15        -4.7747    2.8490    5.0342 H         1 <0>         0.0728
     35 H16        -5.6955    1.5450    5.8218 H         1 <0>         0.0426
     36 H17        -4.1484    1.1829    5.0194 H         1 <0>         0.0438
     37 H18        -7.5849    2.1973    2.6813 H         1 <0>         0.0505
     38 H19        -7.7023    2.1374    4.4564 H         1 <0>         0.0456
     39 H20        -6.7815    3.4414    3.6689 H         1 <0>         0.0727
     40 H21         0.0819   -2.6877    3.5699 H         1 <0>         0.0656
     41 H22        -1.5049   -2.8430    4.3612 H         1 <0>         0.0733
     42 H23        -0.9215   -4.1284    3.2769 H         1 <0>         0.0650
@<TRIPOS>BOND
     1    1    2 1
     2    1   23 1
     3    1   24 1
     4    1   25 1
     5    2    3 1
     6    2   26 1
     7    2   27 1
     8    3    4 1
     9    3   10 1
    10    3    5 1
    11    5    6 1
    12    5   28 1
    13    5   29 1
    14    6    7 1
    15    7    8 1
    16    7    9 1
    17    7   22 1
    18    9   10 1
    19    9   30 1
    20    9   31 1
    21   10   11 am
    22   11   12 2
    23   11   13 am
    24   13   14 1
    25   13   32 1
    26   14   15 1
    27   14   16 1
    28   14   19 1
    29   16   17 1
    30   16   18 1
    31   16   33 1
    32   17   34 1
    33   17   35 1
    34   17   36 1
    35   18   37 1
    36   18   38 1
    37   18   39 1
    38   19   20 2
    39   19   21 1
    40   22   40 1
    41   22   41 1
    42   22   42 1
@<TRIPOS>MOLECULE
ZINC61493836
   25    25     0     0     0
SMALL
USER_CHARGES

@<TRIPOS>ATOM
      1 C1         -0.0187    1.5258    0.0104 C.3       1 <0>        -0.1577
      2 C2          0.0021   -0.0041    0.0020 C.3       1 <0>        -0.1091
      3 C3         -1.4333   -0.5336    0.0129 C.3       1 <0>        -0.0679
      4 H1         -1.9701   -0.1109    0.8621 H         1 <0>         0.1196
      5 C4         -1.4136   -2.0361    0.1285 C.2       1 <0>         0.5167
      6 O1         -0.6478   -2.6865   -0.5508 O.2       1 <0>        -0.5294
      7 N1         -2.2469   -2.6569    0.9867 N.am      1 <0>        -0.7002
      8 C5         -2.2277   -4.1175    1.0991 C.3       1 <0>         0.2597
      9 H2         -1.2075   -4.4785    0.9689 H         1 <0>         0.0948
     10 C6         -3.1251   -4.7240    0.0185 C.3       1 <0>        -0.1486
     11 C7         -2.7345   -4.5234    2.4590 C.2       1 <0>         0.0403
     12 N2         -2.1990   -5.4300    3.2635 N.2       1 <0>        -0.3760
     13 N3         -2.9250   -5.4841    4.3277 N.2       1 <0>        -0.1926
     14 N4         -3.8946   -4.6441    4.2171 N.2       1 <0>        -0.1928
     15 N5         -3.7980   -4.0383    3.0830 N.2       1 <0>        -0.3809
     16 Br1        -2.3352   -0.0165   -1.6557 Br        1 <0>        -0.1193
     17 H3          1.0039    1.9031    0.0027 H         1 <0>         0.0629
     18 H4         -0.5459    1.8868   -0.8726 H         1 <0>         0.0652
     19 H5         -0.5289    1.8773    0.9072 H         1 <0>         0.0574
     20 H6          0.5123   -0.3556   -0.8948 H         1 <0>         0.0868
     21 H7          0.5293   -0.3651    0.8851 H         1 <0>         0.0821
     22 H8         -2.8593   -2.1367    1.5300 H         1 <0>         0.4072
     23 H9         -4.1453   -4.3629    0.1487 H         1 <0>         0.0595
     24 H10        -2.7585   -4.4304   -0.9652 H         1 <0>         0.0583
     25 H11        -3.1108   -5.8107    0.1021 H         1 <0>         0.0641
@<TRIPOS>BOND
     1    1    2 1
     2    1   17 1
     3    1   18 1
     4    1   19 1
     5    2    3 1
     6    2   20 1
     7    2   21 1
     8    3    4 1
     9    3    5 1
    10    3   16 1
    11    5    6 2
    12    5    7 am
    13    7    8 1
    14    7   22 1
    15    8    9 1
    16    8   10 1
    17    8   11 1
    18   10   23 1
    19   10   24 1
    20   10   25 1
    21   11   12 2
    22   11   15 1
    23   12   13 1
    24   13   14 2
    25   14   15 1
@<TRIPOS>MOLECULE
ZINC04531818
   36    36     0     0     0
SMALL
USER_CHARGES
N-[2,2,2-trichloro-1-[(2-methyl-4-nitro-phenyl)thiocarbamoylamino]ethyl]acetamide
@<TRIPOS>ATOM
      1 C1          2.1241    3.3685    1.6885 C.3       1 <0>        -0.1191
      2 C2          1.0010    2.8956    0.8020 C.ar      1 <0>        -0.0838
      3 C3         -0.2075    3.5646    0.8006 C.ar      1 <0>        -0.0520
      4 C4         -1.2384    3.1313   -0.0124 C.ar      1 <0>        -0.0316
      5 C5         -1.0619    2.0301   -0.8303 C.ar      1 <0>        -0.0528
      6 C6          0.1418    1.3533   -0.8294 C.ar      1 <0>        -0.0641
      7 C7          1.1797    1.7864   -0.0141 C.ar      1 <0>         0.1740
      8 N1          2.4024    1.1068   -0.0154 N.pl3     1 <0>        -0.6308
      9 C8          2.4263   -0.2375    0.0783 C.2       1 <0>         0.5484
     10 S1          0.9601   -1.1212    0.0878 S.2       1 <0>        -0.5311
     11 N2          3.6046   -0.8861    0.1647 N.pl3     1 <0>        -0.6894
     12 C9          3.6306   -2.3473    0.2666 C.3       1 <0>         0.3572
     13 H1          2.6359   -2.7114    0.5236 H         1 <0>         0.1988
     14 C10         4.6231   -2.7651    1.3535 C.3       1 <0>         0.1078
     15 Cl1         4.1152   -2.0614    2.9339 Cl        1 <0>        -0.0564
     16 Cl2         4.6552   -4.5635    1.4790 Cl        1 <0>        -0.0460
     17 Cl3         6.2686   -2.1629    0.9285 Cl        1 <0>        -0.0875
     18 N3          4.0433   -2.9192   -1.0175 N.am      1 <0>        -0.7358
     19 C11         3.1309   -3.5022   -1.8199 C.2       1 <0>         0.5097
     20 O1          1.9681   -3.5534   -1.4790 O.2       1 <0>        -0.4821
     21 C12         3.5554   -4.0904   -3.1408 C.3       1 <0>        -0.1719
     22 N4         -2.5319    3.8510   -0.0117 N.pl3     1 <0>         0.0268
     23 O2         -2.6872    4.8238    0.7046 O.2       1 <0>        -0.1591
     24 O3         -3.4409    3.4704   -0.7274 O.3       1 <0>        -0.1529
     25 H2          2.7338    4.0924    1.1476 H         1 <0>         0.0822
     26 H3          1.7097    3.8374    2.5810 H         1 <0>         0.0845
     27 H4          2.7413    2.5180    1.9781 H         1 <0>         0.0692
     28 H5         -0.3470    4.4274    1.4351 H         1 <0>         0.1591
     29 H6         -1.8677    1.6966   -1.4673 H         1 <0>         0.1604
     30 H7          0.2776    0.4909   -1.4652 H         1 <0>         0.1679
     31 H8          3.2330    1.6031   -0.0839 H         1 <0>         0.4125
     32 H9          4.4354   -0.3854    0.1593 H         1 <0>         0.4017
     33 H10         4.9733   -2.8782   -1.2902 H         1 <0>         0.4047
     34 H11         4.2938   -4.8736   -2.9693 H         1 <0>         0.0926
     35 H12         2.6872   -4.5140   -3.6458 H         1 <0>         0.1000
     36 H13         3.9922   -3.3092   -3.7629 H         1 <0>         0.0891
@<TRIPOS>BOND
     1    1    2 1
     2    1   25 1
     3    1   26 1
     4    1   27 1
     5    2    7 ar
     6    2    3 ar
     7    3    4 ar
     8    3   28 1
     9    4    5 ar
    10    4   22 1
    11    5    6 ar
    12    5   29 1
    13    6    7 ar
    14    6   30 1
    15    7    8 1
    16    8    9 1
    17    8   31 1
    18    9   10 2
    19    9   11 1
    20   11   12 1
    21   11   32 1
    22   12   13 1
    23   12   14 1
    24   12   18 1
    25   14   15 1
    26   14   16 1
    27   14   17 1
    28   18   19 am
    29   18   33 1
    30   19   20 2
    31   19   21 1
    32   21   34 1
    33   21   35 1
    34   21   36 1
    35   22   23 2
    36   22   24 1
@<TRIPOS>MOLECULE
ZINC21499477
   40    42     0     0     0
SMALL
USER_CHARGES
[2-[(3-carbamoyl-2-thienyl)amino]-2-oxo-ethyl] 5-(4-fluorophenyl)furan-2-carboxylate
@<TRIPOS>ATOM
      1 C1         -2.5215  -10.3450   -0.0355 C.ar      1 <0>        -0.0575
      2 C2         -3.8588  -10.6799   -0.0197 C.ar      1 <0>        -0.1517
      3 C3         -4.8248   -9.6859   -0.0042 C.ar      1 <0>         0.1170
      4 C4         -4.4528   -8.3505   -0.0000 C.ar      1 <0>        -0.1514
      5 C5         -3.1185   -8.0039   -0.0108 C.ar      1 <0>        -0.0615
      6 C6         -2.1407   -9.0012   -0.0259 C.ar      1 <0>        -0.0473
      7 C7         -0.7101   -8.6363   -0.0380 C.2       1 <0>         0.0850
      8 C8          0.3357   -9.5150   -0.0532 C.2       1 <0>        -0.2057
      9 C9          1.5100   -8.7570   -0.0606 C.2       1 <0>        -0.0878
     10 C10         1.1282   -7.4319   -0.0495 C.2       1 <0>        -0.0683
     11 O1         -0.2211   -7.3850   -0.0300 O.3       1 <0>        -0.1391
     12 C11         2.0279   -6.2786   -0.0520 C.2       1 <0>         0.5592
     13 O2          3.2327   -6.4470   -0.0648 O.2       1 <0>        -0.4784
     14 O3          1.5215   -5.0278   -0.0401 O.3       1 <0>        -0.3185
     15 C12         2.4582   -3.9487   -0.0434 C.3       1 <0>         0.0528
     16 C13         1.7146   -2.6380   -0.0288 C.2       1 <0>         0.5094
     17 O4          0.5019   -2.6289   -0.0168 O.2       1 <0>        -0.4789
     18 N1          2.3972   -1.4759   -0.0291 N.am      1 <0>        -0.6228
     19 C14         1.7130   -0.2699   -0.0157 C.2       1 <0>         0.1260
     20 C15         2.2342    1.0185   -0.0138 C.2       1 <0>        -0.2633
     21 C16         1.2826    2.1038    0.0011 C.2       1 <0>        -0.1059
     22 C17        -0.0221    1.7765    0.0118 C.2       1 <0>        -0.2378
     23 S1          0.0021   -0.0041    0.0020 S.3       1 <0>         0.2212
     24 C18         3.6799    1.2633   -0.0258 C.2       1 <0>         0.5933
     25 O5          4.4558    0.3257   -0.0379 O.2       1 <0>        -0.5743
     26 N2          4.1494    2.5266   -0.0235 N.am      1 <0>        -0.8700
     27 F1         -6.1339  -10.0198    0.0063 F         1 <0>        -0.1326
     28 H1         -1.7697  -11.1203   -0.0517 H         1 <0>         0.1432
     29 H2         -4.1543  -11.7187   -0.0229 H         1 <0>         0.1462
     30 H3         -5.2098   -7.5802    0.0113 H         1 <0>         0.1448
     31 H4         -2.8298   -6.9632   -0.0079 H         1 <0>         0.1437
     32 H5          0.2679  -10.5929   -0.0584 H         1 <0>         0.1674
     33 H6          2.5213   -9.1359   -0.0723 H         1 <0>         0.1717
     34 H7          3.0990   -4.0167    0.8481 H         1 <0>         0.1155
     35 H8          3.0813   -4.0067   -0.9481 H         1 <0>         0.1155
     36 H9          3.4971   -1.4841   -0.0400 H         1 <0>         0.4654
     37 H10         1.6045    3.1347    0.0032 H         1 <0>         0.1401
     38 H11        -0.8781    2.4350    0.0197 H         1 <0>         0.1895
     39 H12         5.2339    2.7103   -0.0325 H         1 <0>         0.4257
     40 H13         3.4481    3.3740   -0.0126 H         1 <0>         0.4202
@<TRIPOS>BOND
     1    1    6 ar
     2    1    2 ar
     3    1   28 1
     4    2    3 ar
     5    2   29 1
     6    3    4 ar
     7    3   27 1
     8    4    5 ar
     9    4   30 1
    10    5    6 ar
    11    5   31 1
    12    6    7 1
    13    7   11 1
    14    7    8 2
    15    8    9 1
    16    8   32 1
    17    9   10 2
    18    9   33 1
    19   10   11 1
    20   10   12 1
    21   12   13 2
    22   12   14 1
    23   14   15 1
    24   15   16 1
    25   15   34 1
    26   15   35 1
    27   16   17 2
    28   16   18 am
    29   18   19 1
    30   18   36 1
    31   19   23 1
    32   19   20 2
    33   20   21 1
    34   20   24 1
    35   21   22 2
    36   21   37 1
    37   22   23 1
    38   22   38 1
    39   24   25 2
    40   24   26 am
    41   26   39 1
    42   26   40 1
@<TRIPOS>MOLECULE
ZINC46654938
   46    48     0     0     0
SMALL
USER_CHARGES

@<TRIPOS>ATOM
      1 C1          0.1506    1.3564   -0.1684 C.3       1 <0>         0.0251
      2 O1         -0.0166   -0.0568   -0.0379 O.3       1 <0>        -0.3056
      3 C2          0.6319   -0.6629    0.9934 C.ar      1 <0>         0.0897
      4 C3          1.4065    0.0887    1.8622 C.ar      1 <0>        -0.1539
      5 C4          2.0658   -0.5254    2.9099 C.ar      1 <0>        -0.1126
      6 C5          1.9535   -1.8971    3.0943 C.ar      1 <0>         0.1432
      7 C6          1.1785   -2.6531    2.2253 C.ar      1 <0>        -0.1974
      8 C7          0.5127   -2.0369    1.1788 C.ar      1 <0>         0.1229
      9 O2         -0.2522   -2.7745    0.3302 O.3       1 <0>        -0.2926
     10 C8         -0.4232   -4.1574    0.6468 C.3       1 <0>         0.0777
     11 C9          0.7346   -4.9834    0.0490 C.3       1 <0>        -0.1482
     12 C10         0.0636   -6.3022   -0.4087 C.3       1 <0>        -0.1239
     13 C11        -1.3019   -5.8185   -0.9571 C.3       1 <0>        -0.1238
     14 C12        -1.7180   -4.6885    0.0070 C.3       1 <0>        -0.1220
     15 N1          2.6223   -2.5178    4.1566 N.am      1 <0>        -0.6658
     16 C13         2.7490   -1.8807    5.3375 C.2       1 <0>         0.5766
     17 O3          2.3562   -0.7355    5.4560 O.2       1 <0>        -0.5111
     18 C14         3.3626   -2.5705    6.4837 C.2       1 <0>        -0.2144
     19 C15         3.5100   -1.9226    7.7645 C.2       1 <0>         0.0507
     20 C16         4.0878   -2.6626    8.7320 C.2       1 <0>        -0.8042
     21 S1          4.4223   -4.2069    7.9133 S.3       1 <0>         0.3518
     22 C17         3.8176   -3.8663    6.3857 C.2       1 <0>        -0.1866
     23 S2          4.4292   -2.2106   10.4005 S.o2      1 <0>         2.7387
     24 O4          5.4929   -3.0452   10.8378 O.2       1 <0>        -0.9520
     25 O5          4.5130   -0.7924   10.4280 O.2       1 <0>        -0.9452
     26 N2          3.1023   -2.6239   11.3010 N.pl3     1 <0>        -1.2450
     27 H1          1.2066    1.5857   -0.3112 H         1 <0>         0.0554
     28 H2         -0.4179    1.7117   -1.0278 H         1 <0>         0.1014
     29 H3         -0.2094    1.8498    0.7345 H         1 <0>         0.0557
     30 H4          1.4954    1.1557    1.7201 H         1 <0>         0.1405
     31 H5          2.6694    0.0621    3.5858 H         1 <0>         0.1439
     32 H6          1.0913   -3.7201    2.3679 H         1 <0>         0.1386
     33 H7         -0.4588   -4.2911    1.7279 H         1 <0>         0.0745
     34 H8          1.1742   -4.4636   -0.8022 H         1 <0>         0.0816
     35 H9          1.4915   -5.1837    0.8073 H         1 <0>         0.0687
     36 H10         0.6480   -6.7804   -1.1947 H         1 <0>         0.0724
     37 H11        -0.0765   -6.9776    0.4353 H         1 <0>         0.0695
     38 H12        -1.1911   -5.4336   -1.9709 H         1 <0>         0.0709
     39 H13        -2.0311   -6.6283   -0.9331 H         1 <0>         0.0712
     40 H14        -2.3816   -5.0806    0.7777 H         1 <0>         0.0773
     41 H15        -2.2160   -3.8913   -0.5449 H         1 <0>         0.0832
     42 H16         2.9944   -3.4064    4.0426 H         1 <0>         0.4077
     43 H17         3.1789   -0.9092    7.9371 H         1 <0>         0.1696
     44 H18         3.7926   -4.5147    5.5224 H         1 <0>         0.2018
     45 H19         3.2069   -2.8734   12.2325 H         1 <0>         0.4250
     46 H20         2.2205   -2.6166   10.8969 H         1 <0>         0.4190
@<TRIPOS>BOND
     1    1    2 1
     2    1   27 1
     3    1   28 1
     4    1   29 1
     5    2    3 1
     6    3    8 ar
     7    3    4 ar
     8    4    5 ar
     9    4   30 1
    10    5    6 ar
    11    5   31 1
    12    6    7 ar
    13    6   15 1
    14    7    8 ar
    15    7   32 1
    16    8    9 1
    17    9   10 1
    18   10   14 1
    19   10   11 1
    20   10   33 1
    21   11   12 1
    22   11   34 1
    23   11   35 1
    24   12   13 1
    25   12   36 1
    26   12   37 1
    27   13   14 1
    28   13   38 1
    29   13   39 1
    30   14   40 1
    31   14   41 1
    32   15   16 am
    33   15   42 1
    34   16   17 2
    35   16   18 1
    36   18   22 2
    37   18   19 1
    38   19   20 2
    39   19   43 1
    40   20   21 1
    41   20   23 1
    42   21   22 1
    43   22   44 1
    44   23   24 2
    45   23   25 2
    46   23   26 1
    47   26   45 1
    48   26   46 1
@<TRIPOS>MOLECULE
ZINC56694673
   56    57     0     0     0
SMALL
USER_CHARGES

@<TRIPOS>ATOM
      1 C1          0.6757    1.5619    0.3179 C.3       1 <0>        -0.1497
      2 C2          0.5505    0.0460    0.1531 C.3       1 <0>        -0.0905
      3 C3          1.3306   -0.6543    1.2675 C.3       1 <0>        -0.1478
      4 C4         -0.9237   -0.3557    0.2323 C.3       1 <0>        -0.1101
      5 C5         -1.0608   -1.8520   -0.0562 C.3       1 <0>         0.0715
      6 H1         -0.4202   -2.4133    0.6239 H         1 <0>         0.0966
      7 C6         -2.5162   -2.2788    0.1449 C.3       1 <0>         0.1031
      8 N1         -2.8904   -2.0921    1.5490 N.am      1 <0>        -0.7326
      9 C7         -4.1008   -2.4954    1.9832 C.2       1 <0>         0.7053
     10 O1         -4.8823   -3.0142    1.2097 O.2       1 <0>        -0.5662
     11 N2         -4.4450   -2.3235    3.2749 N.am      1 <0>        -0.6840
     12 C8         -5.7340   -2.6414    3.7012 C.ar      1 <0>         0.2059
     13 C9         -6.4004   -3.7297    3.1451 C.ar      1 <0>        -0.1256
     14 C10        -7.6725   -4.0471    3.5628 C.ar      1 <0>        -0.0537
     15 C11        -8.2966   -3.2752    4.5472 C.ar      1 <0>        -0.1508
     16 C12        -7.6246   -2.1822    5.1043 C.ar      1 <0>         0.0366
     17 C13        -6.3481   -1.8740    4.6846 C.ar      1 <0>        -0.1517
     18 Cl1        -8.3940   -1.2196    6.3271 Cl        1 <0>        -0.0234
     19 C14        -9.6604   -3.6122    4.9970 C.2       1 <0>         0.5537
     20 O2        -10.2017   -2.9398    5.8534 O.2       1 <0>        -0.5137
     21 N3        -10.3065   -4.6655    4.4588 N.am      1 <0>        -0.7327
     22 C15       -11.6609   -5.0002    4.9055 C.3       1 <0>         0.0885
     23 N4         -0.6584   -2.1221   -1.4429 N.3       1 <0>        -0.5152
     24 C16        -1.5130   -1.3927   -2.3911 C.3       1 <0>         0.0058
     25 C17        -1.0227   -1.6548   -3.8176 C.3       1 <0>         0.0637
     26 O3         -1.0201   -3.0635   -4.0641 O.3       1 <0>        -0.3838
     27 C18        -0.1974   -3.8049   -3.1592 C.3       1 <0>         0.0640
     28 C19        -0.6794   -3.5646   -1.7261 C.3       1 <0>         0.0102
     29 H2          1.7259    1.8481    0.2614 H         1 <0>         0.0549
     30 H3          0.1200    2.0608   -0.4761 H         1 <0>         0.0525
     31 H4          0.2703    1.8569    1.2858 H         1 <0>         0.0514
     32 H5          0.9559   -0.2490   -0.8148 H         1 <0>         0.0843
     33 H6          2.3808   -0.3682    1.2111 H         1 <0>         0.0540
     34 H7          0.9252   -0.3594    2.2354 H         1 <0>         0.0498
     35 H8          1.2414   -1.7343    1.1501 H         1 <0>         0.0550
     36 H9         -1.3054   -0.1417    1.2306 H         1 <0>         0.0657
     37 H10        -1.4945    0.2101   -0.5039 H         1 <0>         0.0691
     38 H11        -3.1637   -1.6715   -0.4875 H         1 <0>         0.0704
     39 H12        -2.6272   -3.3293   -0.1240 H         1 <0>         0.0737
     40 H13        -2.2669   -1.6781    2.1661 H         1 <0>         0.3999
     41 H14        -3.7960   -1.9787    3.9080 H         1 <0>         0.4117
     42 H15        -5.9183   -4.3257    2.3844 H         1 <0>         0.1532
     43 H16        -8.1885   -4.8915    3.1302 H         1 <0>         0.1382
     44 H17        -5.8263   -1.0330    5.1170 H         1 <0>         0.1437
     45 H18        -9.8746   -5.2019    3.7757 H         1 <0>         0.4001
     46 H19       -12.0171   -5.8750    4.3615 H         1 <0>         0.0768
     47 H20       -11.6481   -5.2170    5.9737 H         1 <0>         0.0620
     48 H21       -12.3254   -4.1577    4.7137 H         1 <0>         0.0619
     49 H22        -2.5427   -1.7358   -2.2914 H         1 <0>         0.0495
     50 H23        -1.4624   -0.3247   -2.1793 H         1 <0>         0.0924
     51 H24        -1.6875   -1.1623   -4.5272 H         1 <0>         0.0987
     52 H25        -0.0119   -1.2633   -3.9327 H         1 <0>         0.0605
     53 H26        -0.2654   -4.8674   -3.3927 H         1 <0>         0.0990
     54 H27         0.8373   -3.4759   -3.2552 H         1 <0>         0.0608
     55 H28        -0.0203   -4.0820   -1.0289 H         1 <0>         0.0879
     56 H29        -1.6958   -3.9425   -1.6157 H         1 <0>         0.0496
@<TRIPOS>BOND
     1    1    2 1
     2    1   29 1
     3    1   30 1
     4    1   31 1
     5    2    3 1
     6    2    4 1
     7    2   32 1
     8    3   33 1
     9    3   34 1
    10    3   35 1
    11    4    5 1
    12    4   36 1
    13    4   37 1
    14    5    6 1
    15    5    7 1
    16    5   23 1
    17    7    8 1
    18    7   38 1
    19    7   39 1
    20    8    9 am
    21    8   40 1
    22    9   10 2
    23    9   11 am
    24   11   12 1
    25   11   41 1
    26   12   17 ar
    27   12   13 ar
    28   13   14 ar
    29   13   42 1
    30   14   15 ar
    31   14   43 1
    32   15   16 ar
    33   15   19 1
    34   16   17 ar
    35   16   18 1
    36   17   44 1
    37   19   20 2
    38   19   21 am
    39   21   22 1
    40   21   45 1
    41   22   46 1
    42   22   47 1
    43   22   48 1
    44   23   28 1
    45   23   24 1
    46   24   25 1
    47   24   49 1
    48   24   50 1
    49   25   26 1
    50   25   51 1
    51   25   52 1
    52   26   27 1
    53   27   28 1
    54   27   53 1
    55   27   54 1
    56   28   55 1
    57   28   56 1
@<TRIPOS>MOLECULE
ZINC66635632
   47    48     0     0     0
SMALL
USER_CHARGES

@<TRIPOS>ATOM
      1 C1          0.1428    0.7073   -0.5547 C.3       1 <0>        -0.1311
      2 C2          0.2106   -0.8212   -0.5523 C.3       1 <0>        -0.1132
      3 H1          0.7917   -1.1578    0.3063 H         1 <0>         0.1185
      4 C3         -1.1841   -1.3857   -0.4672 C.2       1 <0>         0.5104
      5 O1         -1.7383   -1.7864   -1.4690 O.2       1 <0>        -0.4851
      6 N1         -1.8156   -1.4454    0.7220 N.am      1 <0>        -0.6611
      7 C4         -3.0664   -2.0696    0.8206 C.ar      1 <0>         0.1130
      8 C5         -3.4381   -3.0286   -0.1089 C.ar      1 <0>        -0.0798
      9 C6         -4.6724   -3.6495   -0.0177 C.ar      1 <0>        -0.1158
     10 C7         -5.5442   -3.3208    0.9975 C.ar      1 <0>        -0.0626
     11 C8         -5.1850   -2.3556    1.9433 C.ar      1 <0>        -0.1373
     12 C9         -3.9345   -1.7308    1.8557 C.ar      1 <0>         0.1426
     13 O2         -3.5730   -0.7966    2.7712 O.3       1 <0>        -0.4748
     14 C10        -6.1156   -2.0013    3.0303 C.2       1 <0>         0.5081
     15 O3         -5.8004   -1.1622    3.8505 O.2       1 <0>        -0.4882
     16 O4         -7.3158   -2.6082    3.1143 O.3       1 <0>        -0.3506
     17 C11        -8.1669   -2.2160    4.1931 C.3       1 <0>         0.0353
     18 S1          1.0025   -1.3938   -2.0805 S.3       1 <0>        -0.0397
     19 C12         1.2233   -3.1230   -1.8242 C.ar      1 <0>        -0.1009
     20 C13         0.7602   -3.7172   -0.6566 C.ar      1 <0>        -0.1118
     21 C14         0.9334   -5.0719   -0.4562 C.ar      1 <0>        -0.0962
     22 C15         1.5703   -5.8409   -1.4213 C.ar      1 <0>         0.1409
     23 C16         2.0333   -5.2476   -2.5883 C.ar      1 <0>        -0.1226
     24 C17         1.8554   -3.8939   -2.7921 C.ar      1 <0>        -0.0774
     25 N2          1.7464   -7.2163   -1.2172 N.am      1 <0>        -0.6752
     26 C18         0.8124   -7.9236   -0.5509 C.2       1 <0>         0.5095
     27 O5         -0.2205   -7.3899   -0.2053 O.2       1 <0>        -0.5240
     28 C19         1.0515   -9.3777   -0.2354 C.3       1 <0>        -0.1704
     29 H2          1.1530    1.1158   -0.5272 H         1 <0>         0.0862
     30 H3         -0.3621    1.0472   -1.4589 H         1 <0>         0.0767
     31 H4         -0.4107    1.0479    0.3204 H         1 <0>         0.0799
     32 H5         -1.4043   -1.0562    1.5096 H         1 <0>         0.4182
     33 H6         -2.7617   -3.2926   -0.9083 H         1 <0>         0.1582
     34 H7         -4.9536   -4.3952   -0.7465 H         1 <0>         0.1407
     35 H8         -6.5056   -3.8087    1.0625 H         1 <0>         0.1451
     36 H9         -3.8234    0.1062    2.5319 H         1 <0>         0.3953
     37 H10        -9.0987   -2.7794    4.1440 H         1 <0>         0.1046
     38 H11        -7.6690   -2.4192    5.1411 H         1 <0>         0.0620
     39 H12        -8.3823   -1.1502    4.1169 H         1 <0>         0.0615
     40 H13         0.2652   -3.1191    0.0941 H         1 <0>         0.1150
     41 H14         0.5739   -5.5338    0.4514 H         1 <0>         0.1360
     42 H15         2.5285   -5.8460   -3.3386 H         1 <0>         0.1335
     43 H16         2.2115   -3.4333   -3.7017 H         1 <0>         0.1344
     44 H17         2.5404   -7.6591   -1.5554 H         1 <0>         0.4128
     45 H18         2.0255   -9.6780   -0.6217 H         1 <0>         0.0792
     46 H19         1.0282   -9.5238    0.8445 H         1 <0>         0.1002
     47 H20         0.2737   -9.9831   -0.7008 H         1 <0>         0.0999
@<TRIPOS>BOND
     1    1    2 1
     2    1   29 1
     3    1   30 1
     4    1   31 1
     5    2    3 1
     6    2    4 1
     7    2   18 1
     8    4    5 2
     9    4    6 am
    10    6    7 1
    11    6   32 1
    12    7   12 ar
    13    7    8 ar
    14    8    9 ar
    15    8   33 1
    16    9   10 ar
    17    9   34 1
    18   10   11 ar
    19   10   35 1
    20   11   12 ar
    21   11   14 1
    22   12   13 1
    23   13   36 1
    24   14   15 2
    25   14   16 1
    26   16   17 1
    27   17   37 1
    28   17   38 1
    29   17   39 1
    30   18   19 1
    31   19   24 ar
    32   19   20 ar
    33   20   21 ar
    34   20   40 1
    35   21   22 ar
    36   21   41 1
    37   22   23 ar
    38   22   25 1
    39   23   24 ar
    40   23   42 1
    41   24   43 1
    42   25   26 am
    43   25   44 1
    44   26   27 2
    45   26   28 1
    46   28   45 1
    47   28   46 1
    48   28   47 1
@<TRIPOS>MOLECULE
ZINC01952879
   37    38     0     0     0
SMALL
USER_CHARGES
4-[[2-(4-pyridylcarbonylamino)acetyl]aminoiminomethyl]benzoic acid
@<TRIPOS>ATOM
      1 C1         -3.6954    1.8819    0.0303 C.ar      1 <0>        -0.0987
      2 C2         -2.5033    1.2154    0.0205 C.ar      1 <0>        -0.0964
      3 C3         -1.3020    1.9310    0.0187 C.ar      1 <0>        -0.0853
      4 C4         -1.3208    3.3291    0.0323 C.ar      1 <0>        -0.0880
      5 C5         -2.5127    3.9962    0.0366 C.ar      1 <0>        -0.0872
      6 C6         -3.7145    3.2805    0.0384 C.ar      1 <0>        -0.0841
      7 C7         -5.0002    3.9997    0.0484 C.2       1 <0>         0.1413
      8 N1         -5.0178    5.2980    0.0560 N.2       1 <0>        -0.2461
      9 N2         -6.2405    5.9819    0.0655 N.am      1 <0>        -0.5814
     10 C8         -6.2587    7.3295    0.0734 C.2       1 <0>         0.5263
     11 O1         -5.2166    7.9502    0.0722 O.2       1 <0>        -0.5012
     12 C9         -7.5739    8.0652    0.0836 C.3       1 <0>         0.1066
     13 N3         -7.3258    9.5090    0.0908 N.am      1 <0>        -0.7102
     14 C10        -8.3620   10.3708    0.1005 C.2       1 <0>         0.5643
     15 O2         -9.5020    9.9502    0.1033 O.2       1 <0>        -0.5279
     16 C11        -8.1111   11.8309    0.1078 C.ar      1 <0>        -0.0881
     17 C12        -6.8073   12.3358    0.1106 C.ar      1 <0>        -0.1394
     18 C13        -6.6190   13.7044    0.1132 C.ar      1 <0>         0.0990
     19 N4         -7.6473   14.5290    0.1226 N.ar      1 <0>        -0.4682
     20 C14        -8.8920   14.0950    0.1249 C.ar      1 <0>         0.0961
     21 C15        -9.1715   12.7421    0.1179 C.ar      1 <0>        -0.1143
     22 C16        -0.0144    1.2108    0.0087 C.2       1 <0>         0.4844
     23 O3          0.0021   -0.0041    0.0020 O.co2     1 <0>        -0.6282
     24 H1         -4.6232    1.3291    0.0320 H         1 <0>         0.1223
     25 H2         -2.4885    0.1355    0.0139 H         1 <0>         0.1325
     26 H3         -0.3928    3.8816    0.0354 H         1 <0>         0.1352
     27 H4         -2.5272    5.0761    0.0433 H         1 <0>         0.1289
     28 H5         -5.9281    3.4470    0.0495 H         1 <0>         0.1185
     29 H6         -7.0738    5.4855    0.0664 H         1 <0>         0.3858
     30 H7         -8.1459    7.7993   -0.8053 H         1 <0>         0.1075
     31 H8         -8.1378    7.7890    0.9746 H         1 <0>         0.1075
     32 H9         -6.4158    9.8447    0.0886 H         1 <0>         0.4148
     33 H10        -5.9600   11.6660    0.1076 H         1 <0>         0.1431
     34 H11        -5.6157   14.1041    0.1117 H         1 <0>         0.1653
     35 H12        -9.7043   14.8067    0.1327 H         1 <0>         0.1649
     36 H13       -10.1937   12.3935    0.1205 H         1 <0>         0.1495
     37 O4          1.1433    1.9003    0.0013 O.co2     1 <0>        -0.7494
@<TRIPOS>BOND
     1    1    6 ar
     2    1    2 ar
     3    1   24 1
     4    2    3 ar
     5    2   25 1
     6    3    4 ar
     7    3   22 1
     8    4    5 ar
     9    4   26 1
    10    5    6 ar
    11    5   27 1
    12    6    7 1
    13    7    8 2
    14    7   28 1
    15    8    9 1
    16    9   10 am
    17    9   29 1
    18   10   11 2
    19   10   12 1
    20   12   13 1
    21   12   30 1
    22   12   31 1
    23   13   14 am
    24   13   32 1
    25   14   15 2
    26   14   16 1
    27   16   21 ar
    28   16   17 ar
    29   17   18 ar
    30   17   33 1
    31   18   19 ar
    32   18   34 1
    33   19   20 ar
    34   20   21 ar
    35   20   35 1
    36   21   36 1
    37   22   23 2
    38   22   37 1
@<TRIPOS>MOLECULE
ZINC33463260
   52    52     0     0     0
SMALL
USER_CHARGES
(2S)-2-[[(1S,2R)-2-(isobutylcarbamoyl)cyclohexanecarbonyl]amino]-3-methyl-butanoic acid
@<TRIPOS>ATOM
      1 C1         -2.0053    7.4889   -3.8861 C.3       1 <0>        -0.1469
      2 C2         -1.2951    7.1013   -2.5875 C.3       1 <0>        -0.1053
      3 C3         -2.1950    7.4328   -1.3954 C.3       1 <0>        -0.1493
      4 C4         -0.9951    5.6011   -2.5984 C.3       1 <0>         0.1290
      5 N1         -0.2108    5.2512   -1.4116 N.am      1 <0>        -0.7463
      6 C5          0.1718    3.9749   -1.2088 C.2       1 <0>         0.5339
      7 O1         -0.1333    3.1160   -2.0088 O.2       1 <0>        -0.5193
      8 C6          0.9786    3.6150    0.0121 C.3       1 <0>        -0.0875
      9 H1          0.3951    3.8732    0.9081 H         1 <0>         0.0988
     10 C7          2.2930    4.3980    0.0038 C.3       1 <0>        -0.1088
     11 C8          3.0883    4.0460   -1.2550 C.3       1 <0>        -0.1217
     12 C9          3.3882    2.5457   -1.2659 C.3       1 <0>        -0.1170
     13 C10         2.0738    1.7628   -1.2576 C.3       1 <0>        -0.1251
     14 C11         1.2785    2.1147    0.0012 C.3       1 <0>        -0.0855
     15 H2          1.8560    1.8421    0.8969 H         1 <0>         0.0957
     16 C12        -0.0162    1.3436    0.0094 C.2       1 <0>         0.5211
     17 O2         -1.0746    1.9356    0.0177 O.2       1 <0>        -0.5556
     18 N2          0.0021   -0.0041    0.0020 N.am      1 <0>        -0.7114
     19 C13        -1.2565   -0.7538    0.0100 C.3       1 <0>         0.1107
     20 H3         -1.9711   -0.1956    0.6327 H         1 <0>         0.0789
     21 C14        -1.7727   -0.8990   -1.4229 C.3       1 <0>        -0.0788
     22 C15        -0.7967   -1.7553   -2.2323 C.3       1 <0>        -0.1376
     23 C16        -3.1468   -1.5716   -1.4043 C.3       1 <0>        -0.1556
     24 C17        -1.0235   -2.1203    0.6009 C.2       1 <0>         0.4700
     25 O3          0.0806   -2.4357    0.9768 O.co2     1 <0>        -0.6383
     26 O4         -2.0425   -2.9872    0.7097 O.co2     1 <0>        -0.7499
     27 H4         -1.3582    7.2505   -4.7431 H         1 <0>         0.0567
     28 H5         -2.2209    8.5675   -3.8782 H         1 <0>         0.0579
     29 H6         -2.9474    6.9273   -3.9705 H         1 <0>         0.0584
     30 H7         -0.3531    7.6630   -2.5031 H         1 <0>         0.0739
     31 H8         -1.6843    7.1541   -0.4618 H         1 <0>         0.0562
     32 H9         -3.1370    6.8712   -1.4798 H         1 <0>         0.0579
     33 H10        -2.4106    8.5114   -1.3875 H         1 <0>         0.0548
     34 H11        -1.9401    5.0382   -2.5924 H         1 <0>         0.0638
     35 H12        -0.4233    5.3481   -3.5034 H         1 <0>         0.0598
     36 H13         0.0659    6.0302   -0.6859 H         1 <0>         0.4107
     37 H14         2.0773    5.4766    0.0116 H         1 <0>         0.0659
     38 H15         2.8819    4.1354    0.8950 H         1 <0>         0.0746
     39 H16         2.4994    4.3087   -2.1462 H         1 <0>         0.0610
     40 H17         4.0333    4.6089   -1.2610 H         1 <0>         0.0626
     41 H18         3.9600    2.2927   -2.1709 H         1 <0>         0.0625
     42 H19         3.9771    2.2830   -0.3747 H         1 <0>         0.0623
     43 H20         1.4849    2.0255   -2.1488 H         1 <0>         0.0970
     44 H21         2.2894    0.6842   -1.2655 H         1 <0>         0.0665
     45 H22         0.9621   -0.5411   -0.0100 H         1 <0>         0.4187
     46 H23        -1.8576    0.0958   -1.8845 H         1 <0>         0.0586
     47 H24        -1.1679   -1.8597   -3.2625 H         1 <0>         0.0413
     48 H25        -0.7118   -2.7501   -1.7706 H         1 <0>         0.0603
     49 H26         0.1912   -1.2717   -2.2457 H         1 <0>         0.0451
     50 H27        -3.5179   -1.6760   -2.4345 H         1 <0>         0.0319
     51 H28        -3.8485   -0.9560   -0.8224 H         1 <0>         0.0400
     52 H29        -3.0619   -2.5664   -0.9426 H         1 <0>         0.1031
@<TRIPOS>BOND
     1    1    2 1
     2    1   27 1
     3    1   28 1
     4    1   29 1
     5    2    3 1
     6    2    4 1
     7    2   30 1
     8    3   31 1
     9    3   32 1
    10    3   33 1
    11    4    5 1
    12    4   34 1
    13    4   35 1
    14    5    6 am
    15    5   36 1
    16    6    7 2
    17    6    8 1
    18    8    9 1
    19    8   14 1
    20    8   10 1
    21   10   11 1
    22   10   37 1
    23   10   38 1
    24   11   12 1
    25   11   39 1
    26   11   40 1
    27   12   13 1
    28   12   41 1
    29   12   42 1
    30   13   14 1
    31   13   43 1
    32   13   44 1
    33   14   15 1
    34   14   16 1
    35   16   17 2
    36   16   18 am
    37   18   19 1
    38   18   45 1
    39   19   20 1
    40   19   21 1
    41   19   24 1
    42   21   22 1
    43   21   23 1
    44   21   46 1
    45   22   47 1
    46   22   48 1
    47   22   49 1
    48   23   50 1
    49   23   51 1
    50   23   52 1
    51   24   25 2
    52   24   26 1
@<TRIPOS>MOLECULE
ZINC37004235
   36    37     0     0     0
SMALL
USER_CHARGES

@<TRIPOS>ATOM
      1 C1         -0.0184    1.5028    0.0103 C.3       1 <0>        -0.0678
      2 C2          0.0021   -0.0041    0.0020 C.2       1 <0>        -0.1489
      3 C3         -1.0392   -0.8719    0.0017 C.2       1 <0>        -0.1456
      4 C4         -0.7802   -2.2296   -0.0075 C.2       1 <0>        -0.1219
      5 C5          0.5074   -2.6532   -0.0160 C.2       1 <0>        -0.1307
      6 S1          1.4039   -1.1093   -0.0179 S.3       1 <0>         0.0239
      7 C6          1.0430   -4.0617   -0.0269 C.3       1 <0>        -0.0791
      8 C7         -1.9124   -3.2242   -0.0076 C.3       1 <0>         0.2084
      9 H1         -1.6327   -4.0931   -0.6032 H         1 <0>         0.1027
     10 C8         -2.2058   -3.6631    1.4284 C.3       1 <0>        -0.1704
     11 N1         -3.1082   -2.6027   -0.5823 N.pl3     1 <0>        -1.1151
     12 S2         -4.1553   -3.5071   -1.4922 S.o2      1 <0>         2.7223
     13 O1         -5.2122   -2.6390   -1.8778 O.2       1 <0>        -0.9778
     14 O2         -3.3652   -4.2127   -2.4393 O.2       1 <0>        -0.9643
     15 C9         -4.8619   -4.7175   -0.4244 C.2       1 <0>        -0.7552
     16 C10        -4.3513   -5.9935   -0.1764 C.2       1 <0>        -0.0859
     17 C11        -5.2117   -6.6055    0.7153 C.2       1 <0>        -0.0291
     18 N2         -6.2207   -5.7097    0.9961 N.pl3     1 <0>        -0.5080
     19 H2         -6.9678   -5.8690    1.5939 H         1 <0>         0.4216
     20 C12        -5.9945   -4.5730    0.3068 C.2       1 <0>         0.0940
     21 C13        -5.0767   -7.9549    1.2601 C.2       1 <0>         0.5464
     22 O3         -5.9114   -8.3840    2.0472 O.co2     1 <0>        -0.6938
     23 O4         -4.1288   -8.6568    0.9295 O.co2     1 <0>        -0.6688
     24 H3          1.0042    1.8801    0.0026 H         1 <0>         0.0700
     25 H4         -0.5455    1.8639   -0.8728 H         1 <0>         0.0790
     26 H5         -0.5286    1.8543    0.9071 H         1 <0>         0.0786
     27 H6         -2.0560   -0.5079    0.0090 H         1 <0>         0.1312
     28 H7          1.1674   -4.3952   -1.0571 H         1 <0>         0.0835
     29 H8          2.0064   -4.0880    0.4823 H         1 <0>         0.0744
     30 H9          0.3427   -4.7207    0.4863 H         1 <0>         0.0878
     31 H10        -3.0247   -4.3825    1.4283 H         1 <0>         0.0776
     32 H11        -1.3161   -4.1255    1.8559 H         1 <0>         0.0680
     33 H12        -2.4856   -2.7942    2.0240 H         1 <0>         0.0594
     34 H13        -3.2866   -1.6616   -0.4297 H         1 <0>         0.4112
     35 H14        -3.4547   -6.4207   -0.6007 H         1 <0>         0.1492
     36 H15        -6.6169   -3.6908    0.3309 H         1 <0>         0.1728
@<TRIPOS>BOND
     1    1    2 1
     2    1   24 1
     3    1   25 1
     4    1   26 1
     5    2    6 1
     6    2    3 2
     7    3    4 1
     8    3   27 1
     9    4    5 2
    10    4    8 1
    11    5    6 1
    12    5    7 1
    13    7   28 1
    14    7   29 1
    15    7   30 1
    16    8    9 1
    17    8   10 1
    18    8   11 1
    19   10   31 1
    20   10   32 1
    21   10   33 1
    22   11   12 1
    23   11   34 1
    24   12   13 2
    25   12   14 2
    26   12   15 1
    27   15   20 2
    28   15   16 1
    29   16   17 2
    30   16   35 1
    31   17   18 1
    32   17   21 1
    33   18   19 1
    34   18   20 1
    35   20   36 1
    36   21   22 2
    37   21   23 1
@<TRIPOS>MOLECULE
ZINC26260038
   42    43     0     0     0
SMALL
USER_CHARGES

@<TRIPOS>ATOM
      1 C1          4.0941    0.6395   -2.8651 C.3       1 <0>        -0.1191
      2 C2          3.2509   -0.4889   -2.3295 C.ar      1 <0>        -0.0298
      3 C3          2.9196   -1.5527   -3.1476 C.ar      1 <0>        -0.1405
      4 C4          2.1462   -2.5878   -2.6563 C.ar      1 <0>         0.0024
      5 C5          1.7045   -2.5592   -1.3467 C.ar      1 <0>        -0.6695
      6 C6          2.0366   -1.4958   -0.5283 C.ar      1 <0>        -0.0058
      7 C7          2.8136   -0.4628   -1.0184 C.ar      1 <0>        -0.1397
      8 S1          0.7178   -3.8780   -0.7208 S.o2      1 <0>         2.6969
      9 O1         -0.0222   -3.3488    0.3709 O.2       1 <0>        -0.9670
     10 O2          0.0915   -4.4846   -1.8429 O.2       1 <0>        -0.9702
     11 N1          1.7522   -5.0062   -0.0888 N.pl3     1 <0>        -1.0898
     12 C8          2.5973   -4.6642    1.0580 C.3       1 <0>         0.1924
     13 H1          2.1414   -3.8448    1.6137 H         1 <0>         0.1009
     14 C9          2.7366   -5.8842    1.9707 C.3       1 <0>        -0.0908
     15 C10         1.3732   -6.2283    2.5737 C.3       1 <0>        -0.0800
     16 S2          1.5132   -7.7451    3.5588 S.3       1 <0>        -0.2720
     17 C11        -0.1646   -8.0116    4.1949 C.3       1 <0>        -0.1212
     18 C12         3.9597   -4.2436    0.5702 C.2       1 <0>         0.4076
     19 O3          4.4135   -4.6807   -0.6204 O.3       1 <0>        -0.6495
     20 N2          4.6984   -3.4575    1.2997 N.2       1 <0>        -0.6625
     21 C13         5.9311   -3.0769    0.8584 C.2       1 <0>         0.5209
     22 N3          6.4930   -3.4305   -0.2826 N.2       1 <0>        -0.5578
     23 H2          6.6620   -1.8423    2.3726 H         1 <0>         0.4224
     24 C14         7.6974   -2.8724   -0.3816 C.2       1 <0>         0.1892
     25 N4          7.9292   -2.1553    0.6863 N.2       1 <0>        -0.3791
     26 N5          6.7965   -2.2635    1.5093 N.pl3     1 <0>        -0.5185
     27 H3          5.1480    0.4154   -2.7006 H         1 <0>         0.0766
     28 H4          3.9097    0.7556   -3.9332 H         1 <0>         0.0679
     29 H5          3.8344    1.5638   -2.3491 H         1 <0>         0.0672
     30 H6          3.2647   -1.5751   -4.1707 H         1 <0>         0.1257
     31 H7          1.8868   -3.4186   -3.2956 H         1 <0>         0.1339
     32 H8          1.6912   -1.4732    0.4947 H         1 <0>         0.1340
     33 H9          3.0761    0.3662   -0.3780 H         1 <0>         0.1244
     34 H10         1.7985   -5.8935   -0.4779 H         1 <0>         0.4198
     35 H11         3.1019   -6.7319    1.3910 H         1 <0>         0.0813
     36 H12         3.4419   -5.6605    2.7711 H         1 <0>         0.0926
     37 H13         1.0412   -5.4097    3.2122 H         1 <0>         0.0863
     38 H14         0.6497   -6.3808    1.7728 H         1 <0>         0.0832
     39 H15        -0.1819   -8.9129    4.8077 H         1 <0>         0.0980
     40 H16        -0.4642   -7.1555    4.7994 H         1 <0>         0.0753
     41 H17        -0.8557   -8.1266    3.3599 H         1 <0>         0.0747
     42 H18         8.3761   -2.9932   -1.2130 H         1 <0>         0.1890
@<TRIPOS>BOND
     1    1    2 1
     2    1   27 1
     3    1   28 1
     4    1   29 1
     5    2    7 ar
     6    2    3 ar
     7    3    4 ar
     8    3   30 1
     9    4    5 ar
    10    4   31 1
    11    5    6 ar
    12    5    8 1
    13    6    7 ar
    14    6   32 1
    15    7   33 1
    16    8    9 2
    17    8   10 2
    18    8   11 1
    19   11   12 1
    20   11   34 1
    21   12   13 1
    22   12   14 1
    23   12   18 1
    24   14   15 1
    25   14   35 1
    26   14   36 1
    27   15   16 1
    28   15   37 1
    29   15   38 1
    30   16   17 1
    31   17   39 1
    32   17   40 1
    33   17   41 1
    34   18   19 1
    35   18   20 2
    36   20   21 1
    37   21   22 2
    38   21   26 1
    39   22   24 1
    40   23   26 1
    41   24   42 1
    42   24   25 2
    43   25   26 1
@<TRIPOS>MOLECULE
ZINC65912839
   46    47     0     0     0
SMALL
USER_CHARGES

@<TRIPOS>ATOM
      1 C1         -0.0187    1.5258    0.0104 C.3       1 <0>        -0.1424
      2 C2          0.0021   -0.0041    0.0020 C.3       1 <0>        -0.5979
      3 S1          0.8794   -0.6050    1.4716 S.o2      1 <0>         2.5169
      4 O1          2.2585   -0.2725    1.3884 O.2       1 <0>        -1.0291
      5 O2          0.1321   -0.3082    2.6432 O.2       1 <0>        -1.0292
      6 N1          0.8346   -2.2558    1.3487 N.2       1 <0>        -1.0408
      7 C3          1.4264   -3.0414    2.3291 C.ar      1 <0>         0.3331
      8 C4          2.0520   -2.4463    3.4177 C.ar      1 <0>        -0.2615
      9 C5          2.6388   -3.2289    4.3905 C.ar      1 <0>        -0.0451
     10 C6          2.6096   -4.6112    4.2914 C.ar      1 <0>        -0.2395
     11 C7          1.9941   -5.2193    3.2196 C.ar      1 <0>        -0.0395
     12 C8          1.3906   -4.4408    2.2285 C.ar      1 <0>        -0.2248
     13 C9          0.7248   -5.0854    1.0818 C.2       1 <0>         0.5704
     14 O3          0.2044   -4.4042    0.2194 O.2       1 <0>        -0.5038
     15 N2          0.6929   -6.4296    0.9895 N.am      1 <0>        -0.7342
     16 C10         0.0313   -7.0701   -0.1499 C.3       1 <0>         0.1337
     17 C11        -1.4659   -7.2008    0.1371 C.3       1 <0>        -0.1581
     18 C12         0.6220   -8.4390   -0.3694 C.2       1 <0>         0.5167
     19 O4          1.5084   -8.8401    0.3547 O.2       1 <0>        -0.5304
     20 N3          0.1654   -9.2174   -1.3703 N.am      1 <0>        -0.7284
     21 C13         0.7397  -10.5482   -1.5837 C.3       1 <0>         0.2033
     22 C14         0.0591  -11.2070   -2.7558 C.2       1 <0>        -0.0369
     23 C15         0.4509  -11.1263   -4.0401 C.2       1 <0>        -0.1833
     24 C16        -0.4673  -11.8895   -4.7972 C.2       1 <0>        -0.2177
     25 C17        -1.3653  -12.3910   -3.9303 C.2       1 <0>        -0.0303
     26 O5         -1.0381  -11.9791   -2.6946 O.3       1 <0>        -0.1712
     27 H1          1.0039    1.9031    0.0027 H         1 <0>         0.0636
     28 H2         -0.5459    1.8868   -0.8726 H         1 <0>         0.0678
     29 H3         -0.5289    1.8773    0.9072 H         1 <0>         0.0636
     30 H4         -1.0205   -0.3814    0.0098 H         1 <0>         0.1201
     31 H5          0.5123   -0.3556   -0.8948 H         1 <0>         0.1200
     32 H6          2.0794   -1.3699    3.5021 H         1 <0>         0.1058
     33 H7          3.1242   -2.7616    5.2346 H         1 <0>         0.1039
     34 H8          3.0723   -5.2145    5.0584 H         1 <0>         0.1050
     35 H9          1.9748   -6.2967    3.1473 H         1 <0>         0.1069
     36 H10         1.1080   -6.9730    1.6775 H         1 <0>         0.4009
     37 H11         0.1783   -6.4634   -1.0435 H         1 <0>         0.1123
     38 H12        -1.6129   -7.8075    1.0306 H         1 <0>         0.0604
     39 H13        -1.8932   -6.2107    0.2958 H         1 <0>         0.0794
     40 H14        -1.9581   -7.6773   -0.7107 H         1 <0>         0.0613
     41 H15        -0.5436   -8.8966   -1.9494 H         1 <0>         0.4057
     42 H16         1.8063  -10.4551   -1.7882 H         1 <0>         0.1005
     43 H17         0.5926  -11.1549   -0.6901 H         1 <0>         0.0861
     44 H18         1.3030  -10.5823   -4.4200 H         1 <0>         0.1518
     45 H19        -0.4511  -12.0406   -5.8664 H         1 <0>         0.1503
     46 H20        -2.2047  -13.0213   -4.1844 H         1 <0>         0.2045
@<TRIPOS>BOND
     1    1    2 1
     2    1   27 1
     3    1   28 1
     4    1   29 1
     5    2    3 1
     6    2   30 1
     7    2   31 1
     8    3    4 2
     9    3    5 2
    10    3    6 1
    11    6    7 1
    12    7   12 ar
    13    7    8 ar
    14    8    9 ar
    15    8   32 1
    16    9   10 ar
    17    9   33 1
    18   10   11 ar
    19   10   34 1
    20   11   12 ar
    21   11   35 1
    22   12   13 1
    23   13   14 2
    24   13   15 am
    25   15   16 1
    26   15   36 1
    27   16   17 1
    28   16   18 1
    29   16   37 1
    30   17   38 1
    31   17   39 1
    32   17   40 1
    33   18   19 2
    34   18   20 am
    35   20   21 1
    36   20   41 1
    37   21   22 1
    38   21   42 1
    39   21   43 1
    40   22   26 1
    41   22   23 2
    42   23   24 1
    43   23   44 1
    44   24   25 2
    45   24   45 1
    46   25   26 1
    47   25   46 1
@<TRIPOS>MOLECULE
ZINC32077705
   43    44     0     0     0
SMALL
USER_CHARGES
(2R)-1-[(2R)-2-[3-(dimethylamino)phenoxy]propanoyl]pyrrolidine-2-carboxylic acid
@<TRIPOS>ATOM
      1 C1          3.4340   -1.4667    2.5871 C.3       1 <0>        -0.1758
      2 C2          3.1057   -1.9877    1.1865 C.3       1 <0>         0.0776
      3 H1          3.7469   -1.5270    0.4205 H         1 <0>         0.0922
      4 C3          1.6527   -1.7284    0.8819 C.2       1 <0>         0.5363
      5 O1          0.8899   -2.6588    0.7288 O.2       1 <0>        -0.5026
      6 N1          1.2010   -0.4628    0.7796 N.am      1 <0>        -0.5956
      7 C4          2.0148    0.7557    0.9423 C.3       1 <0>         0.0914
      8 C5          1.2539    1.8493    0.1518 C.3       1 <0>        -0.1338
      9 C6         -0.2230    1.4736    0.4433 C.3       1 <0>        -0.0942
     10 C7         -0.1850   -0.0685    0.4881 C.3       1 <0>         0.0949
     11 H2         -0.4922   -0.5286   -0.4627 H         1 <0>         0.0769
     12 C8         -1.1033   -0.5726    1.5715 C.2       1 <0>         0.4601
     13 O2         -0.6554   -1.2110    2.4944 O.co2     1 <0>        -0.6180
     14 O3         -2.4187   -0.3124    1.5111 O.co2     1 <0>        -0.7707
     15 O4          3.3612   -3.3925    1.1289 O.3       1 <0>        -0.2869
     16 C9          4.6369   -3.7771    0.8616 C.ar      1 <0>         0.1823
     17 C10         5.6440   -2.8262    0.7694 C.ar      1 <0>        -0.2683
     18 C11         6.9418   -3.2156    0.4987 C.ar      1 <0>        -0.0354
     19 C12         7.2416   -4.5522    0.3189 C.ar      1 <0>        -0.2353
     20 C13         6.2378   -5.5084    0.4100 C.ar      1 <0>         0.2469
     21 C14         4.9341   -5.1192    0.6867 C.ar      1 <0>        -0.2275
     22 N2          6.5406   -6.8597    0.2288 N.pl3     1 <0>        -0.6367
     23 C15         7.9176   -7.2697   -0.0577 C.3       1 <0>         0.0961
     24 C16         5.4813   -7.8671    0.3251 C.3       1 <0>         0.0907
     25 H3          4.4945   -1.6560    2.8094 H         1 <0>         0.0709
     26 H4          2.8061   -1.9843    3.3273 H         1 <0>         0.0801
     27 H5          3.2373   -0.3853    2.6315 H         1 <0>         0.0811
     28 H6          2.0922    1.0049    2.0109 H         1 <0>         0.0671
     29 H7          3.0207    0.5822    0.5324 H         1 <0>         0.0670
     30 H8          1.5338    2.8412    0.5362 H         1 <0>         0.0790
     31 H9          1.5172    1.7814   -0.9141 H         1 <0>         0.0722
     32 H10        -0.5320    1.9174    1.4012 H         1 <0>         0.0762
     33 H11        -0.8651    1.8579   -0.3629 H         1 <0>         0.0799
     34 H12         5.4129   -1.7806    0.9099 H         1 <0>         0.1264
     35 H13         7.7235   -2.4737    0.4279 H         1 <0>         0.1218
     36 H14         8.2568   -4.8540    0.1078 H         1 <0>         0.1188
     37 H15         4.1526   -5.8607    0.7622 H         1 <0>         0.1297
     38 H16         7.9592   -8.3634   -0.1677 H         1 <0>         0.0722
     39 H17         8.5723   -6.9593    0.7699 H         1 <0>         0.0536
     40 H18         8.2552   -6.7943   -0.9904 H         1 <0>         0.0535
     41 H19         5.9088   -8.8662    0.1545 H         1 <0>         0.0722
     42 H20         4.7114   -7.6632   -0.4336 H         1 <0>         0.0570
     43 H21         5.0284   -7.8283    1.3268 H         1 <0>         0.0569
@<TRIPOS>BOND
     1    1    2 1
     2    1   25 1
     3    1   26 1
     4    1   27 1
     5    2    3 1
     6    2    4 1
     7    2   15 1
     8    4    5 2
     9    4    6 am
    10    6   10 1
    11    6    7 1
    12    7    8 1
    13    7   28 1
    14    7   29 1
    15    8    9 1
    16    8   30 1
    17    8   31 1
    18    9   10 1
    19    9   32 1
    20    9   33 1
    21   10   11 1
    22   10   12 1
    23   12   13 2
    24   12   14 1
    25   15   16 1
    26   16   21 ar
    27   16   17 ar
    28   17   18 ar
    29   17   34 1
    30   18   19 ar
    31   18   35 1
    32   19   20 ar
    33   19   36 1
    34   20   21 ar
    35   20   22 1
    36   21   37 1
    37   22   23 1
    38   22   24 1
    39   23   38 1
    40   23   39 1
    41   23   40 1
    42   24   41 1
    43   24   42 1
    44   24   43 1
@<TRIPOS>MOLECULE
ZINC20397696
   41    41     0     0     0
SMALL
USER_CHARGES

@<TRIPOS>ATOM
      1 C1         -0.6361    2.7078    1.5685 C.3       1 <0>        -0.1544
      2 C2         -0.8947    1.2047    1.4472 C.3       1 <0>        -0.1519
      3 H1         -1.9304    0.9917    1.7122 H         1 <0>         0.0769
      4 C3          0.0397    0.4485    2.3937 C.3       1 <0>        -0.5689
      5 S1         -0.3689    0.8687    4.1104 S.o2      1 <0>         2.5891
      6 O1         -0.0464    2.2278    4.3716 O.2       1 <0>        -0.9581
      7 O2         -1.6469    0.3491    4.4506 O.2       1 <0>        -0.9632
      8 N1          0.6995   -0.0028    5.0277 N.pl3     1 <0>        -1.0038
      9 C4          0.3645   -1.3613    5.4774 C.3       1 <0>         0.1058
     10 C5          1.4722   -2.3170    5.0170 C.3       1 <0>         0.0837
     11 N2          2.7724   -1.7460    5.3955 N.am      1 <0>        -0.6081
     12 C6          3.1073   -0.3875    4.9459 C.3       1 <0>         0.0919
     13 C7          2.0020    0.5660    5.4016 C.3       1 <0>         0.1090
     14 C8          3.6419   -2.4553    6.1421 C.2       1 <0>         0.5203
     15 O3          4.7471   -2.0116    6.3713 O.2       1 <0>        -0.5414
     16 C9          3.2407   -3.7998    6.6921 C.3       1 <0>        -0.1168
     17 C10         3.4983   -4.8792    5.6388 C.3       1 <0>        -0.1443
     18 C11         4.0633   -4.1040    7.9458 C.3       1 <0>        -0.1337
     19 C12        -0.6380    0.7637    0.0293 C.2       1 <0>         0.5082
     20 O4          0.2134   -0.0776   -0.2028 O.co2     1 <0>        -0.6917
     21 O5         -1.2817    1.2481   -0.8858 O.co2     1 <0>        -0.6902
     22 H2          0.3995    2.9209    1.3036 H         1 <0>         0.0563
     23 H3         -1.3018    3.2466    0.8943 H         1 <0>         0.0698
     24 H4         -0.8218    3.0269    2.5941 H         1 <0>         0.0586
     25 H5         -0.0815   -0.6243    2.2436 H         1 <0>         0.1290
     26 H6          1.0722    0.7299    2.1866 H         1 <0>         0.1270
     27 H7          0.2942   -1.3797    6.5650 H         1 <0>         0.0763
     28 H8         -0.5867   -1.6668    5.0416 H         1 <0>         0.1052
     29 H9          1.3435   -3.2857    5.4997 H         1 <0>         0.1004
     30 H10         1.4261   -2.4359    3.9345 H         1 <0>         0.0838
     31 H11         4.0586   -0.0820    5.3817 H         1 <0>         0.1045
     32 H12         3.1777   -0.3691    3.8583 H         1 <0>         0.0778
     33 H13         2.1318    1.5331    4.9157 H         1 <0>         0.1053
     34 H14         2.0509    0.6880    6.4836 H         1 <0>         0.0749
     35 H15         2.1811   -3.7865    6.9472 H         1 <0>         0.0937
     36 H16         3.1803   -5.8474    6.0255 H         1 <0>         0.0690
     37 H17         2.9354   -4.6464    4.7349 H         1 <0>         0.0622
     38 H18         4.5625   -4.9127    5.4057 H         1 <0>         0.0630
     39 H19         3.8798   -3.3350    8.6962 H         1 <0>         0.0565
     40 H20         3.7732   -5.0764    8.3436 H         1 <0>         0.0622
     41 H21         5.1230   -4.1172    7.6907 H         1 <0>         0.0663
@<TRIPOS>BOND
     1    1    2 1
     2    1   22 1
     3    1   23 1
     4    1   24 1
     5    2    3 1
     6    2    4 1
     7    2   19 1
     8    4    5 1
     9    4   25 1
    10    4   26 1
    11    5    6 2
    12    5    7 2
    13    5    8 1
    14    8   13 1
    15    8    9 1
    16    9   10 1
    17    9   27 1
    18    9   28 1
    19   10   11 1
    20   10   29 1
    21   10   30 1
    22   11   12 1
    23   11   14 am
    24   12   13 1
    25   12   31 1
    26   12   32 1
    27   13   33 1
    28   13   34 1
    29   14   15 2
    30   14   16 1
    31   16   17 1
    32   16   18 1
    33   16   35 1
    34   17   36 1
    35   17   37 1
    36   17   38 1
    37   18   39 1
    38   18   40 1
    39   18   41 1
    40   19   20 2
    41   19   21 1
@<TRIPOS>MOLECULE
ZINC48869593
   35    36     0     0     0
SMALL
USER_CHARGES

@<TRIPOS>ATOM
      1 C1         -0.0189    1.5390    0.0105 C.3       1 <0>        -0.1275
      2 C2          1.4884    1.9071   -0.0019 C.3       1 <0>        -0.1303
      3 C3          2.0919    0.7759    0.8676 C.3       1 <0>         0.1206
      4 N1          1.3128   -0.4257    0.5176 N.pl3     1 <0>        -1.0103
      5 C4          0.0021   -0.0041    0.0020 C.3       1 <0>         0.1257
      6 S1          1.8289   -1.9910    0.6777 S.o2      1 <0>         2.7704
      7 O1          1.0727   -2.7642   -0.2441 O.2       1 <0>        -1.0233
      8 O2          3.2493   -1.9546    0.6563 O.2       1 <0>        -1.0216
      9 N2          1.3912   -2.4984    2.1920 N.2       1 <0>        -1.0790
     10 C5          1.6766   -3.6960    2.5788 C.2       1 <0>         0.4926
     11 O3          2.3317   -4.5346    1.7495 O.3       1 <0>        -0.7277
     12 C6          1.2783   -4.1577    3.9569 C.3       1 <0>        -0.0986
     13 C7          0.5548   -3.0234    4.6856 C.3       1 <0>         0.1322
     14 N3          0.1676   -3.4723    6.0253 N.am      1 <0>        -0.6199
     15 C8         -1.1206   -4.1083    6.2337 C.3       1 <0>         0.0960
     16 C9         -1.1347   -4.9392    7.5437 C.3       1 <0>        -0.0742
     17 S2          0.1876   -4.0429    8.4629 S.3       1 <0>        -0.2534
     18 C10         1.0093   -3.2999    7.0632 C.2       1 <0>         0.5683
     19 O4          2.0955   -2.7531    7.0499 O.2       1 <0>        -0.4648
     20 H1         -0.4998    1.9132    0.9143 H         1 <0>         0.0726
     21 H2         -0.5169    1.9228   -0.8798 H         1 <0>         0.0738
     22 H3          1.8895    1.8774   -1.0150 H         1 <0>         0.0712
     23 H4          1.6561    2.8825    0.4546 H         1 <0>         0.0766
     24 H5          3.1442    0.6302    0.6235 H         1 <0>         0.0747
     25 H6          1.9758    1.0083    1.9262 H         1 <0>         0.0617
     26 H7         -0.7901   -0.3891    0.6441 H         1 <0>         0.0608
     27 H8         -0.1315   -0.3710   -1.0156 H         1 <0>         0.0607
     28 H9          0.6142   -5.0181    3.8740 H         1 <0>         0.0788
     29 H10         2.1696   -4.4394    4.5175 H         1 <0>         0.0803
     30 H11         1.2189   -2.1631    4.7685 H         1 <0>         0.0977
     31 H12        -0.3365   -2.7417    4.1250 H         1 <0>         0.0942
     32 H13        -1.8926   -3.3409    6.2895 H         1 <0>         0.0858
     33 H14        -1.3342   -4.7662    5.3914 H         1 <0>         0.1000
     34 H15        -2.0956   -4.8660    8.0531 H         1 <0>         0.1262
     35 H16        -0.8606   -5.9782    7.3610 H         1 <0>         0.1098
@<TRIPOS>BOND
     1    1    5 1
     2    1    2 1
     3    1   20 1
     4    1   21 1
     5    2    3 1
     6    2   22 1
     7    2   23 1
     8    3    4 1
     9    3   24 1
    10    3   25 1
    11    4    5 1
    12    4    6 1
    13    5   26 1
    14    5   27 1
    15    6    7 2
    16    6    8 2
    17    6    9 1
    18    9   10 2
    19   10   11 1
    20   10   12 1
    21   12   13 1
    22   12   28 1
    23   12   29 1
    24   13   14 1
    25   13   30 1
    26   13   31 1
    27   14   18 am
    28   14   15 1
    29   15   16 1
    30   15   32 1
    31   15   33 1
    32   16   17 1
    33   16   34 1
    34   16   35 1
    35   17   18 1
    36   18   19 2
@<TRIPOS>MOLECULE
ZINC51602268
   40    41     0     0     0
SMALL
USER_CHARGES

@<TRIPOS>ATOM
      1 C1         -0.0187    1.5258    0.0104 C.3       1 <0>        -0.1461
      2 C2          0.0021   -0.0041    0.0020 C.3       1 <0>        -0.0705
      3 H1          0.5117   -0.3592   -0.8937 H         1 <0>         0.0835
      4 C3         -1.4319   -0.5390    0.0254 C.3       1 <0>        -0.1344
      5 C4         -2.0482   -0.2902    1.3721 C.2       1 <0>         0.5228
      6 O1         -3.2556   -0.3485    1.4703 O.2       1 <0>        -0.5699
      7 N1         -1.3389   -0.0082    2.4655 N.am      1 <0>        -0.5943
      8 C5          0.1110    0.1396    2.4836 C.3       1 <0>         0.1593
      9 H2          0.3650    1.1996    2.4938 H         1 <0>         0.0729
     10 C6          0.7320   -0.5173    1.2491 C.3       1 <0>        -0.1605
     11 H3          0.6234   -1.5998    1.3168 H         1 <0>         0.0695
     12 C7          2.1928   -0.1568    1.1641 C.2       1 <0>         0.5044
     13 O2          2.6147    0.4541    0.1970 O.co2     1 <0>        -0.6833
     14 O3          2.9528   -0.4761    2.0625 O.co2     1 <0>        -0.6893
     15 C8          0.6716   -0.5268    3.7416 C.3       1 <0>        -0.1710
     16 C9         -2.0624    0.1645    3.7276 C.3       1 <0>         0.1226
     17 C10        -2.1745   -1.1850    4.4399 C.3       1 <0>        -0.1228
     18 H4         -1.1834   -1.6237    4.5553 H         1 <0>         0.1077
     19 C11        -3.0693   -2.1311    3.6222 C.3       1 <0>        -0.1147
     20 C12        -3.4484   -3.3665    4.4741 C.3       1 <0>        -0.5754
     21 S1         -3.3942   -2.7061    6.1897 S.o2      1 <0>         2.3659
     22 O4         -2.3804   -3.3877    6.9156 O.2       1 <0>        -0.9398
     23 O5         -4.7159   -2.6604    6.7095 O.2       1 <0>        -0.9460
     24 C13        -2.8280   -0.9886    5.8377 C.3       1 <0>        -0.5669
     25 H5          1.0039    1.9031    0.0027 H         1 <0>         0.0850
     26 H6         -0.5459    1.8868   -0.8726 H         1 <0>         0.0408
     27 H7         -0.5289    1.8773    0.9072 H         1 <0>         0.0400
     28 H8         -2.0196   -0.0333   -0.7408 H         1 <0>         0.0932
     29 H9         -1.4220   -1.6102   -0.1760 H         1 <0>         0.0913
     30 H10         0.4128   -1.5857    3.7378 H         1 <0>         0.0526
     31 H11         1.7560   -0.4179    3.7579 H         1 <0>         0.1085
     32 H12         0.2454   -0.0517    4.6251 H         1 <0>         0.0463
     33 H13        -1.5226    0.8668    4.3628 H         1 <0>         0.0847
     34 H14        -3.0607    0.5519    3.5241 H         1 <0>         0.0911
     35 H15        -3.9761   -1.6046    3.3247 H         1 <0>         0.0977
     36 H16        -2.5325   -2.4569    2.7312 H         1 <0>         0.0895
     37 H17        -4.4510   -3.7145    4.2254 H         1 <0>         0.1379
     38 H18        -2.7177   -4.1647    4.3439 H         1 <0>         0.1354
     39 H19        -2.0945   -0.6571    6.5727 H         1 <0>         0.1421
     40 H20        -3.6703   -0.2986    5.7856 H         1 <0>         0.1403
@<TRIPOS>BOND
     1    1    2 1
     2    1   25 1
     3    1   26 1
     4    1   27 1
     5    2    3 1
     6    2   10 1
     7    2    4 1
     8    4    5 1
     9    4   28 1
    10    4   29 1
    11    5    6 2
    12    5    7 am
    13    7    8 1
    14    7   16 1
    15    8    9 1
    16    8   10 1
    17    8   15 1
    18   10   11 1
    19   10   12 1
    20   12   13 2
    21   12   14 1
    22   15   30 1
    23   15   31 1
    24   15   32 1
    25   16   17 1
    26   16   33 1
    27   16   34 1
    28   17   18 1
    29   17   24 1
    30   17   19 1
    31   19   20 1
    32   19   35 1
    33   19   36 1
    34   20   21 1
    35   20   37 1
    36   20   38 1
    37   21   22 2
    38   21   23 2
    39   21   24 1
    40   24   39 1
    41   24   40 1
@<TRIPOS>MOLECULE
ZINC62869980
   40    41     0     0     0
SMALL
USER_CHARGES

@<TRIPOS>ATOM
      1 C1          1.6240    1.0174    0.8211 C.3       1 <0>        -0.1583
      2 C2          1.0639   -0.3792    0.5446 C.3       1 <0>        -0.0868
      3 C3         -0.4400   -0.2825    0.2802 C.3       1 <0>        -0.1389
      4 C4         -0.6883    0.6127   -0.9360 C.3       1 <0>        -0.0942
      5 C5          0.0358    0.0339   -2.1538 C.3       1 <0>        -0.1383
      6 C6         -0.5203   -1.3607   -2.4583 C.3       1 <0>         0.1014
      7 N1         -0.4176   -2.1856   -1.2468 N.am      1 <0>        -0.6009
      8 C7         -1.0015   -1.6806    0.0033 C.3       1 <0>         0.1407
      9 C8          0.2000   -3.3830   -1.2817 C.2       1 <0>         0.5252
     10 O1          0.3487   -4.0187   -0.2596 O.2       1 <0>        -0.5324
     11 C9          0.7059   -3.9321   -2.5908 C.3       1 <0>        -0.1252
     12 H1          1.1069   -3.1216   -3.1995 H         1 <0>         0.1170
     13 C10        -0.4428   -4.6259   -3.3416 C.3       1 <0>        -0.1149
     14 C11         0.1226   -5.4610   -4.5156 C.3       1 <0>        -0.5757
     15 S1          1.8084   -5.8986   -3.9250 S.o2      1 <0>         2.3687
     16 O2          2.7689   -5.3147   -4.7944 O.2       1 <0>        -0.9374
     17 O3          1.8589   -7.2945   -3.6638 O.2       1 <0>        -0.9378
     18 C12         1.8166   -4.9876   -2.3237 C.3       1 <0>        -0.5544
     19 C13        -1.1260    0.3052    1.4865 C.2       1 <0>         0.5078
     20 O4         -0.8237    1.4199    1.8770 O.co2     1 <0>        -0.6841
     21 O5         -1.9834   -0.3341    2.0719 O.co2     1 <0>        -0.6954
     22 H2          2.6953    0.9485    1.0095 H         1 <0>         0.0273
     23 H3          1.4475    1.6574   -0.0434 H         1 <0>         0.0441
     24 H4          1.1281    1.4415    1.6943 H         1 <0>         0.0959
     25 H5          1.5597   -0.8033   -0.3285 H         1 <0>         0.0423
     26 H6          1.2403   -1.0192    1.4092 H         1 <0>         0.0477
     27 H7         -1.7581    0.6612   -1.1388 H         1 <0>         0.0536
     28 H8         -0.3116    1.6150   -0.7321 H         1 <0>         0.0735
     29 H9         -0.1222    0.6843   -3.0140 H         1 <0>         0.0694
     30 H10         1.1027   -0.0380   -1.9425 H         1 <0>         0.0697
     31 H11        -1.5652   -1.2800   -2.7580 H         1 <0>         0.0707
     32 H12         0.0581   -1.8173   -3.2614 H         1 <0>         0.0785
     33 H13        -0.7406   -2.3484    0.8243 H         1 <0>         0.0908
     34 H14        -2.0856   -1.6261   -0.0956 H         1 <0>         0.0708
     35 H15        -0.9790   -5.2821   -2.6560 H         1 <0>         0.0947
     36 H16        -1.1281   -3.8727   -3.7303 H         1 <0>         0.1021
     37 H17        -0.4759   -6.3579   -4.6754 H         1 <0>         0.1436
     38 H18         0.1749   -4.8629   -5.4254 H         1 <0>         0.1408
     39 H19         2.7803   -4.5098   -2.1472 H         1 <0>         0.1442
     40 H20         1.5466   -5.6431   -1.4957 H         1 <0>         0.1543
@<TRIPOS>BOND
     1    1    2 1
     2    1   22 1
     3    1   23 1
     4    1   24 1
     5    2    3 1
     6    2   25 1
     7    2   26 1
     8    3    8 1
     9    3    4 1
    10    3   19 1
    11    4    5 1
    12    4   27 1
    13    4   28 1
    14    5    6 1
    15    5   29 1
    16    5   30 1
    17    6    7 1
    18    6   31 1
    19    6   32 1
    20    7    8 1
    21    7    9 am
    22    8   33 1
    23    8   34 1
    24    9   10 2
    25    9   11 1
    26   11   12 1
    27   11   18 1
    28   11   13 1
    29   13   14 1
    30   13   35 1
    31   13   36 1
    32   14   15 1
    33   14   37 1
    34   14   38 1
    35   15   16 2
    36   15   17 2
    37   15   18 1
    38   18   39 1
    39   18   40 1
    40   19   20 2
    41   19   21 1
@<TRIPOS>MOLECULE
ZINC13183144
   56    58     0     0     0
SMALL
USER_CHARGES
2-[(1S)-6,7-dimethoxy-2-[2-(m-tolylmethylsulfanyl)acetyl]-3,4-dihydro-1H-isoquinolin-1-yl]acetic acid
@<TRIPOS>ATOM
      1 C1         -2.5526    3.8686    0.0469 C.3       1 <0>        -0.1147
      2 C2         -1.2375    3.1329    0.0303 C.ar      1 <0>        -0.0867
      3 C3         -1.2188    1.7505    0.0173 C.ar      1 <0>        -0.1199
      4 C4         -0.0126    1.0758    0.0080 C.ar      1 <0>        -0.1176
      5 C5          1.1752    1.7833    0.0004 C.ar      1 <0>        -0.1083
      6 C6          1.1565    3.1653    0.0076 C.ar      1 <0>        -0.0608
      7 C7         -0.0501    3.8402    0.0223 C.ar      1 <0>        -0.1007
      8 C8          2.4512    3.9365   -0.0011 C.3       1 <0>        -0.0739
      9 S1          2.9540    4.2546   -1.7148 S.3       1 <0>        -0.1598
     10 C9          4.5070    5.1778   -1.5523 C.3       1 <0>        -0.1243
     11 C10         5.0397    5.5099   -2.9223 C.2       1 <0>         0.5407
     12 O1          4.4315    5.1584   -3.9110 O.2       1 <0>        -0.4665
     13 N1          6.1919    6.1975   -3.0489 N.am      1 <0>        -0.6001
     14 C11         6.9541    6.6386   -1.8689 C.3       1 <0>         0.1062
     15 C12         8.3000    5.9160   -1.8822 C.3       1 <0>        -0.0892
     16 C13         8.9366    5.9921   -3.2452 C.ar      1 <0>        -0.0725
     17 C14        10.3074    5.7752   -3.3271 C.ar      1 <0>        -0.1729
     18 C15        10.9556    5.8197   -4.5469 C.ar      1 <0>         0.0925
     19 C16        10.2284    6.0831   -5.7044 C.ar      1 <0>         0.1017
     20 C17         8.8660    6.3021   -5.6189 C.ar      1 <0>        -0.1634
     21 C18         8.2204    6.2619   -4.3899 C.ar      1 <0>        -0.0659
     22 C19         6.7402    6.5312   -4.3677 C.3       1 <0>         0.2074
     23 H1          6.2502    5.9237   -5.1285 H         1 <0>         0.1083
     24 C20         6.4923    8.0120   -4.6623 C.3       1 <0>        -0.1639
     25 C21         5.0100    8.2610   -4.7717 C.2       1 <0>         0.4521
     26 O2          4.2318    7.3479   -4.6287 O.co2     1 <0>        -0.6025
     27 O3         10.8540    6.1241   -6.9112 O.3       1 <0>        -0.3089
     28 C22        10.0415    6.3996   -8.0540 C.3       1 <0>         0.0240
     29 O4         12.2971    5.6078   -4.6161 O.3       1 <0>        -0.3087
     30 C23        12.9764    5.3434   -3.3869 C.3       1 <0>         0.0280
     31 H2         -2.8797    4.0511   -0.9767 H         1 <0>         0.0720
     32 H3         -3.2992    3.2666    0.5650 H         1 <0>         0.0643
     33 H4         -2.4302    4.8201    0.5643 H         1 <0>         0.0665
     34 H5         -2.1467    1.1979    0.0187 H         1 <0>         0.1201
     35 H6          0.0021   -0.0041    0.0020 H         1 <0>         0.1221
     36 H7          2.1177    1.2561   -0.0115 H         1 <0>         0.1229
     37 H8         -0.0647    4.9201    0.0280 H         1 <0>         0.1251
     38 H9          2.3129    4.8844    0.5189 H         1 <0>         0.0877
     39 H10         3.2237    3.3552    0.5023 H         1 <0>         0.0860
     40 H11         4.3256    6.0996   -0.9997 H         1 <0>         0.1028
     41 H12         5.2364    4.5704   -1.0163 H         1 <0>         0.0994
     42 H13         7.1135    7.7159   -1.9145 H         1 <0>         0.0747
     43 H14         6.4078    6.3840   -0.9607 H         1 <0>         0.0836
     44 H15         8.9626    6.3788   -1.1508 H         1 <0>         0.0816
     45 H16         8.1478    4.8699   -1.6164 H         1 <0>         0.0771
     46 H17        10.8712    5.5704   -2.4290 H         1 <0>         0.1318
     47 H18         8.2991    6.5059   -6.5153 H         1 <0>         0.1378
     48 H19         6.9037    8.6170   -3.8544 H         1 <0>         0.0637
     49 H20         6.9763    8.2817   -5.6010 H         1 <0>         0.0705
     50 H21        10.6631    6.4035   -8.9494 H         1 <0>         0.0985
     51 H22         9.2740    5.6313   -8.1479 H         1 <0>         0.0560
     52 H23         9.5675    7.3741   -7.9365 H         1 <0>         0.0577
     53 H24        12.8479    6.1893   -2.7116 H         1 <0>         0.0529
     54 H25        12.5613    4.4460   -2.9282 H         1 <0>         0.0522
     55 H26        14.0380    5.1933   -3.5834 H         1 <0>         0.0966
     56 O5          4.5543    9.4973   -5.0280 O.co2     1 <0>        -0.7832
@<TRIPOS>BOND
     1    1    2 1
     2    1   31 1
     3    1   32 1
     4    1   33 1
     5    2    7 ar
     6    2    3 ar
     7    3    4 ar
     8    3   34 1
     9    4    5 ar
    10    4   35 1
    11    5    6 ar
    12    5   36 1
    13    6    7 ar
    14    6    8 1
    15    7   37 1
    16    8    9 1
    17    8   38 1
    18    8   39 1
    19    9   10 1
    20   10   11 1
    21   10   40 1
    22   10   41 1
    23   11   12 2
    24   11   13 am
    25   13   22 1
    26   13   14 1
    27   14   15 1
    28   14   42 1
    29   14   43 1
    30   15   16 1
    31   15   44 1
    32   15   45 1
    33   16   21 ar
    34   16   17 ar
    35   17   18 ar
    36   17   46 1
    37   18   19 ar
    38   18   29 1
    39   19   20 ar
    40   19   27 1
    41   20   21 ar
    42   20   47 1
    43   21   22 1
    44   22   23 1
    45   22   24 1
    46   24   25 1
    47   24   48 1
    48   24   49 1
    49   25   26 2
    50   25   56 1
    51   27   28 1
    52   28   50 1
    53   28   51 1
    54   28   52 1
    55   29   30 1
    56   30   53 1
    57   30   54 1
    58   30   55 1
@<TRIPOS>MOLECULE
ZINC20080248
   52    55     0     0     0
SMALL
USER_CHARGES
(5S)-5-(3-fluorophenyl)-3-hydroxy-1-(3-morpholinopropyl)-4-(thiophene-2-carbonyl)-5H-pyrrol-2-one
@<TRIPOS>ATOM
      1 C1         -0.3548    4.2947    0.7637 C.ar      1 <0>        -0.0927
      2 C2         -1.4278    3.4387    0.5967 C.ar      1 <0>        -0.0977
      3 C3         -1.2113    2.1128    0.2716 C.ar      1 <0>        -0.0485
      4 C4          0.0785    1.6385    0.1243 C.ar      1 <0>        -0.1493
      5 C5          1.1536    2.4946    0.2912 C.ar      1 <0>         0.0915
      6 C6          0.9353    3.8242    0.6113 C.ar      1 <0>        -0.1618
      7 F1          2.4146    2.0335    0.1415 F         1 <0>        -0.1459
      8 C7         -2.3820    1.1826    0.0838 C.3       1 <0>         0.2668
      9 H1         -2.0196    0.2697   -0.4115 H         1 <0>         0.0701
     10 C8         -3.0322    0.8901    1.4159 C.2       1 <0>        -0.5035
     11 C9         -4.3073    1.3336    1.3336 C.2       1 <0>         0.2705
     12 C10        -4.5350    1.9127   -0.0055 C.2       1 <0>         0.5141
     13 O1         -5.5827    2.3956   -0.3872 O.2       1 <0>        -0.5299
     14 N1         -3.4114    1.8267   -0.7406 N.am      1 <0>        -0.6095
     15 C11        -3.2448    2.2939   -2.1190 C.3       1 <0>         0.1370
     16 C12        -3.6041    1.1649   -3.0871 C.3       1 <0>        -0.1346
     17 C13        -3.4301    1.6529   -4.5268 C.3       1 <0>         0.0596
     18 N2         -3.7750    0.5689   -5.4563 N.3       1 <0>        -0.5353
     19 C14        -2.8156   -0.5402   -5.3515 C.3       1 <0>         0.0129
     20 C15        -3.2453   -1.6699   -6.2912 C.3       1 <0>         0.0615
     21 O2         -3.3430   -1.1627   -7.6248 O.3       1 <0>        -0.3879
     22 C16        -4.2692   -0.0818   -7.7632 C.3       1 <0>         0.0621
     23 C17        -3.8500    1.0640   -6.8385 C.3       1 <0>         0.0168
     24 O3         -5.2288    1.2588    2.3226 O.3       1 <0>        -0.6471
     25 C18        -2.4017    0.2484    2.5757 C.2       1 <0>         0.5409
     26 O4         -2.2458    0.8752    3.6089 O.2       1 <0>        -0.4619
     27 C19        -1.9597   -1.1461    2.4911 C.2       1 <0>        -0.2054
     28 C20        -1.4120   -1.9525    3.4805 C.2       1 <0>        -0.1151
     29 C21        -1.0825   -3.2360    3.1276 C.2       1 <0>        -0.1702
     30 C22        -1.3029   -3.6514    1.8511 C.2       1 <0>        -0.2233
     31 S1         -1.9920   -2.2532    1.0924 S.3       1 <0>         0.1564
     32 H2         -0.5253    5.3317    1.0129 H         1 <0>         0.1288
     33 H3         -2.4359    3.8074    0.7160 H         1 <0>         0.1254
     34 H4          0.2475    0.6014   -0.1253 H         1 <0>         0.1315
     35 H5          1.7732    4.4930    0.7414 H         1 <0>         0.1288
     36 H6         -3.9068    3.1542   -2.2971 H         1 <0>         0.0805
     37 H7         -2.1994    2.5961   -2.2799 H         1 <0>         0.0739
     38 H8         -2.9421    0.3046   -2.9090 H         1 <0>         0.0666
     39 H9         -4.6494    0.8627   -2.9262 H         1 <0>         0.0791
     40 H10        -4.0921    2.5132   -4.7049 H         1 <0>         0.0787
     41 H11        -2.3848    1.9552   -4.6877 H         1 <0>         0.0361
     42 H12        -1.8134   -0.1861   -5.6349 H         1 <0>         0.0420
     43 H13        -2.7945   -0.9102   -4.3158 H         1 <0>         0.0929
     44 H14        -2.4998   -2.4780   -6.2579 H         1 <0>         0.0984
     45 H15        -4.2233   -2.0599   -5.9726 H         1 <0>         0.0611
     46 H16        -4.2712    0.2681   -8.8061 H         1 <0>         0.0970
     47 H17        -5.2777   -0.4258   -7.4900 H         1 <0>         0.0604
     48 H18        -4.5906    1.8752   -6.8977 H         1 <0>         0.0867
     49 H19        -2.8645    1.4440   -7.1459 H         1 <0>         0.0413
     50 H20        -1.2523   -1.5848    4.4834 H         1 <0>         0.1400
     51 H21        -0.6534   -3.9094    3.8548 H         1 <0>         0.1291
     52 H22        -1.1022   -4.6197    1.4168 H         1 <0>         0.1814
@<TRIPOS>BOND
     1    1    6 ar
     2    1    2 ar
     3    1   32 1
     4    2    3 ar
     5    2   33 1
     6    3    4 ar
     7    3    8 1
     8    4    5 ar
     9    4   34 1
    10    5    6 ar
    11    5    7 1
    12    6   35 1
    13    8    9 1
    14    8   14 1
    15    8   10 1
    16   10   11 2
    17   10   25 1
    18   11   12 1
    19   11   24 1
    20   12   13 2
    21   12   14 am
    22   14   15 1
    23   15   16 1
    24   15   36 1
    25   15   37 1
    26   16   17 1
    27   16   38 1
    28   16   39 1
    29   17   18 1
    30   17   40 1
    31   17   41 1
    32   18   23 1
    33   18   19 1
    34   19   20 1
    35   19   42 1
    36   19   43 1
    37   20   21 1
    38   20   44 1
    39   20   45 1
    40   21   22 1
    41   22   23 1
    42   22   46 1
    43   22   47 1
    44   23   48 1
    45   23   49 1
    46   25   26 2
    47   25   27 1
    48   27   31 1
    49   27   28 2
    50   28   29 1
    51   28   50 1
    52   29   30 2
    53   29   51 1
    54   30   31 1
    55   30   52 1
@<TRIPOS>MOLECULE
ZINC41368419
   45    47     0     0     0
SMALL
USER_CHARGES

@<TRIPOS>ATOM
      1 C1          0.8865    0.9757    3.6170 C.3       1 <0>        -0.1164
      2 C2          0.7797   -0.4535    3.1511 C.ar      1 <0>        -0.0511
      3 C3          0.3097   -0.7333    1.8816 C.ar      1 <0>        -0.1474
      4 C4          0.2117   -2.0442    1.4542 C.ar      1 <0>        -0.0182
      5 C5          0.5841   -3.0754    2.2962 C.ar      1 <0>        -0.6345
      6 C6          1.0549   -2.7955    3.5654 C.ar      1 <0>        -0.0181
      7 C7          1.1570   -1.4843    3.9912 C.ar      1 <0>        -0.1473
      8 S1          0.4581   -4.7464    1.7519 S.o2      1 <0>         2.6763
      9 O1          0.3539   -5.5476    2.9209 O.2       1 <0>        -1.0078
     10 O2         -0.5238   -4.7661    0.7248 O.2       1 <0>        -1.0081
     11 N1          1.8992   -5.1383    1.0365 N.2       1 <0>        -1.0909
     12 C8          2.0775   -6.3283    0.5417 C.2       1 <0>         0.6937
     13 O3          1.0869   -7.2444    0.6116 O.3       1 <0>        -0.7331
     14 N2          3.2740   -6.6537   -0.0522 N.pl3     1 <0>        -0.5686
     15 C9          3.4890   -8.0056   -0.5741 C.3       1 <0>         0.1794
     16 C10         3.0470   -8.0645   -2.0137 C.ar      1 <0>        -0.1487
     17 C11         1.7392   -8.3968   -2.3335 C.ar      1 <0>        -0.0420
     18 C12         1.3774   -8.4387   -3.6711 C.ar      1 <0>        -0.1788
     19 C13         2.3254   -8.1500   -4.6346 C.ar      1 <0>         0.0890
     20 N3          3.5604   -7.8382   -4.2937 N.ar      1 <0>        -0.4934
     21 C14         3.9383   -7.7827   -3.0313 C.ar      1 <0>         0.1058
     22 C15         4.2869   -5.6931   -0.1583 C.ar      1 <0>         0.1889
     23 C16         4.2816   -4.7907   -1.2137 C.ar      1 <0>        -0.0783
     24 C17         5.2815   -3.8435   -1.3162 C.ar      1 <0>        -0.1464
     25 C18         6.2892   -3.7937   -0.3678 C.ar      1 <0>         0.0818
     26 C19         6.2964   -4.6927    0.6854 C.ar      1 <0>        -0.1477
     27 C20         5.2952   -5.6377    0.7948 C.ar      1 <0>        -0.0887
     28 F1          7.2669   -2.8670   -0.4704 F         1 <0>        -0.1482
     29 H1          1.8698    1.3693    3.3594 H         1 <0>         0.0730
     30 H2          0.1166    1.5749    3.1308 H         1 <0>         0.0670
     31 H3          0.7504    1.0167    4.6977 H         1 <0>         0.0671
     32 H4          0.0187    0.0723    1.2237 H         1 <0>         0.1251
     33 H5         -0.1562   -2.2629    0.4626 H         1 <0>         0.1355
     34 H6          1.3456   -3.6011    4.2234 H         1 <0>         0.1361
     35 H7          1.5283   -1.2655    4.9815 H         1 <0>         0.1253
     36 H8          4.5478   -8.2563   -0.5086 H         1 <0>         0.0781
     37 H9          2.9099   -8.7182    0.0132 H         1 <0>         0.0982
     38 H10         1.0197   -8.6180   -1.5590 H         1 <0>         0.1472
     39 H11         0.3676   -8.6940   -3.9567 H         1 <0>         0.1305
     40 H12         2.0516   -8.1804   -5.6789 H         1 <0>         0.1491
     41 H13         4.9573   -7.5184   -2.7903 H         1 <0>         0.1487
     42 H14         3.4962   -4.8297   -1.9540 H         1 <0>         0.1259
     43 H15         5.2777   -3.1415   -2.1369 H         1 <0>         0.1300
     44 H16         7.0834   -4.6523    1.4239 H         1 <0>         0.1310
     45 H17         5.2989   -6.3360    1.6187 H         1 <0>         0.1311
@<TRIPOS>BOND
     1    1    2 1
     2    1   29 1
     3    1   30 1
     4    1   31 1
     5    2    7 ar
     6    2    3 ar
     7    3    4 ar
     8    3   32 1
     9    4    5 ar
    10    4   33 1
    11    5    6 ar
    12    5    8 1
    13    6    7 ar
    14    6   34 1
    15    7   35 1
    16    8    9 2
    17    8   10 2
    18    8   11 1
    19   11   12 2
    20   12   13 1
    21   12   14 1
    22   14   15 1
    23   14   22 1
    24   15   16 1
    25   15   36 1
    26   15   37 1
    27   16   21 ar
    28   16   17 ar
    29   17   18 ar
    30   17   38 1
    31   18   19 ar
    32   18   39 1
    33   19   20 ar
    34   19   40 1
    35   20   21 ar
    36   21   41 1
    37   22   27 ar
    38   22   23 ar
    39   23   24 ar
    40   23   42 1
    41   24   25 ar
    42   24   43 1
    43   25   26 ar
    44   25   28 1
    45   26   27 ar
    46   26   44 1
    47   27   45 1
@<TRIPOS>MOLECULE
ZINC06480006
   46    48     0     0     0
SMALL
USER_CHARGES

@<TRIPOS>ATOM
      1 C1         -0.0184    1.5028    0.0103 C.3       1 <0>        -0.1158
      2 C2          0.0021   -0.0041    0.0020 C.ar      1 <0>        -0.0526
      3 C3          0.0057   -0.6887   -1.1989 C.ar      1 <0>        -0.1481
      4 C4          0.0245   -2.0709   -1.2065 C.ar      1 <0>        -0.0190
      5 C5          0.0400   -2.7685   -0.0132 C.ar      1 <0>        -0.6328
      6 C6          0.0373   -2.0839    1.1877 C.ar      1 <0>        -0.0165
      7 C7          0.0229   -0.7016    1.1953 C.ar      1 <0>        -0.1475
      8 S1          0.0628   -4.5303   -0.0229 S.o2      1 <0>         2.6748
      9 O1         -0.4759   -4.9503    1.2232 O.2       1 <0>        -1.0088
     10 O2         -0.4897   -4.9367   -1.2674 O.2       1 <0>        -1.0101
     11 N1          1.6509   -4.9994   -0.0343 N.2       1 <0>        -1.0916
     12 C8          1.9555   -6.2642   -0.0428 C.2       1 <0>         0.6906
     13 O3          0.9762   -7.1949   -0.0424 O.3       1 <0>        -0.7393
     14 N2          3.2726   -6.6533   -0.0522 N.pl3     1 <0>        -0.5926
     15 C9          3.6156   -8.0775   -0.0619 C.3       1 <0>         0.1728
     16 C10         3.7253   -8.5582   -1.4859 C.ar      1 <0>        -0.1250
     17 C11         2.6738   -9.2406   -2.0683 C.ar      1 <0>        -0.0582
     18 C12         2.7742   -9.6815   -3.3744 C.ar      1 <0>        -0.1346
     19 C13         3.9263   -9.4406   -4.1000 C.ar      1 <0>        -0.0978
     20 C14         4.9786   -8.7582   -3.5201 C.ar      1 <0>        -0.1631
     21 C15         4.8771   -8.3114   -2.2133 C.ar      1 <0>         0.1027
     22 F1          5.9035   -7.6400   -1.6468 F         1 <0>        -0.1398
     23 C16         4.3345   -5.6441   -0.0526 C.3       1 <0>         0.1997
     24 C17         4.7065   -5.3057    1.3680 C.2       1 <0>         0.0049
     25 C18         5.6560   -5.9165    2.0993 C.2       1 <0>        -0.2237
     26 C19         5.6683   -5.2850    3.3642 C.2       1 <0>        -0.2206
     27 C20         4.7256   -4.3261    3.3302 C.2       1 <0>        -0.0526
     28 O4          4.1502   -4.3394    2.1167 O.3       1 <0>        -0.1519
     29 H1          1.0042    1.8801    0.0026 H         1 <0>         0.0724
     30 H2         -0.5455    1.8639   -0.8728 H         1 <0>         0.0666
     31 H3         -0.5286    1.8543    0.9071 H         1 <0>         0.0666
     32 H4         -0.0064   -0.1436   -2.1312 H         1 <0>         0.1247
     33 H5          0.0266   -2.6057   -2.1448 H         1 <0>         0.1358
     34 H6          0.0491   -2.6289    2.1200 H         1 <0>         0.1355
     35 H7          0.0245   -0.1667    2.1335 H         1 <0>         0.1245
     36 H8          4.5687   -8.2251    0.4459 H         1 <0>         0.0746
     37 H9          2.8383   -8.6420    0.4532 H         1 <0>         0.0965
     38 H10         1.7736   -9.4296   -1.5024 H         1 <0>         0.1412
     39 H11         1.9522  -10.2150   -3.8285 H         1 <0>         0.1258
     40 H12         4.0038   -9.7862   -5.1202 H         1 <0>         0.1262
     41 H13         5.8785   -8.5705   -4.0869 H         1 <0>         0.1292
     42 H14         5.2081   -6.0361   -0.5735 H         1 <0>         0.0992
     43 H15         3.9819   -4.7459   -0.5597 H         1 <0>         0.1037
     44 H16         6.2874   -6.7330    1.7814 H         1 <0>         0.1409
     45 H17         6.3110   -5.5264    4.1979 H         1 <0>         0.1397
     46 H18         4.4764   -3.6564    4.1400 H         1 <0>         0.1934
@<TRIPOS>BOND
     1    1    2 1
     2    1   29 1
     3    1   30 1
     4    1   31 1
     5    2    7 ar
     6    2    3 ar
     7    3    4 ar
     8    3   32 1
     9    4    5 ar
    10    4   33 1
    11    5    6 ar
    12    5    8 1
    13    6    7 ar
    14    6   34 1
    15    7   35 1
    16    8    9 2
    17    8   10 2
    18    8   11 1
    19   11   12 2
    20   12   13 1
    21   12   14 1
    22   14   15 1
    23   14   23 1
    24   15   16 1
    25   15   36 1
    26   15   37 1
    27   16   21 ar
    28   16   17 ar
    29   17   18 ar
    30   17   38 1
    31   18   19 ar
    32   18   39 1
    33   19   20 ar
    34   19   40 1
    35   20   21 ar
    36   20   41 1
    37   21   22 1
    38   23   24 1
    39   23   42 1
    40   23   43 1
    41   24   28 1
    42   24   25 2
    43   25   26 1
    44   25   44 1
    45   26   27 2
    46   26   45 1
    47   27   28 1
    48   27   46 1
@<TRIPOS>MOLECULE
ZINC66339622
   46    47     0     0     0
SMALL
USER_CHARGES

@<TRIPOS>ATOM
      1 C1         -1.4892    0.9696   -0.2503 C.3       1 <0>         0.0862
      2 N1         -0.6867   -0.2500   -0.1294 N.am      1 <0>        -0.6303
      3 C2         -0.5736   -0.9272    1.1648 C.3       1 <0>         0.1284
      4 C3         -1.6957   -1.9583    1.3007 C.3       1 <0>        -0.1369
      5 C4         -1.5775   -2.6655    2.6523 C.3       1 <0>         0.0666
      6 O1         -2.6256   -3.6286    2.7792 O.3       1 <0>        -0.3912
      7 C5         -2.6064   -4.3493    4.0130 C.3       1 <0>         0.0322
      8 C6         -0.0525   -0.7491   -1.2088 C.2       1 <0>         0.5841
      9 O2          0.5347   -1.8112   -1.1318 O.2       1 <0>        -0.5119
     10 C7         -0.0705   -0.0074   -2.4828 C.ar      1 <0>        -0.2127
     11 C8          0.1278    1.3757   -2.4939 C.ar      1 <0>        -0.0436
     12 C9          0.1097    2.0630   -3.6876 C.ar      1 <0>        -0.2349
     13 C10        -0.1049    1.3899   -4.8802 C.ar      1 <0>        -0.0442
     14 C11        -0.3028    0.0246   -4.8859 C.ar      1 <0>        -0.2671
     15 C12        -0.2813   -0.6870   -3.6926 C.ar      1 <0>         0.3273
     16 N2         -0.4741   -2.0622   -3.6963 N.2       1 <0>        -1.0490
     17 S1         -0.7225   -2.8596   -5.1262 S.o2      1 <0>         2.5996
     18 O3         -1.9706   -2.4067   -5.6324 O.2       1 <0>        -1.0220
     19 O4          0.4850   -2.7502   -5.8673 O.2       1 <0>        -1.0123
     20 C13        -0.9247   -4.5673   -4.7422 C.ar      1 <0>        -0.6327
     21 C14        -2.1331   -5.1921   -4.9859 C.ar      1 <0>        -0.0352
     22 C15        -2.2918   -6.5338   -4.6846 C.ar      1 <0>         0.0584
     23 C16        -1.2398   -7.2500   -4.1390 C.ar      1 <0>        -0.0854
     24 C17        -0.0317   -6.6255   -3.8953 C.ar      1 <0>        -0.1531
     25 C18         0.1287   -5.2846   -4.2016 C.ar      1 <0>         0.1993
     26 F1          1.3116   -4.6752   -3.9681 F         1 <0>        -0.1056
     27 F2         -3.4733   -7.1444   -4.9224 F         1 <0>        -0.1367
     28 H1         -0.8489    1.8410   -0.1132 H         1 <0>         0.0493
     29 H2         -1.9469    1.0069   -1.2388 H         1 <0>         0.0765
     30 H3         -2.2690    0.9684    0.5113 H         1 <0>         0.0589
     31 H4          0.3915   -1.4298    1.2288 H         1 <0>         0.0796
     32 H5         -0.6551   -0.1937    1.9670 H         1 <0>         0.0682
     33 H6         -2.6607   -1.4557    1.2368 H         1 <0>         0.0681
     34 H7         -1.6142   -2.6918    0.4985 H         1 <0>         0.0811
     35 H8         -0.6125   -3.1682    2.7162 H         1 <0>         0.0501
     36 H9         -1.6590   -1.9320    3.4545 H         1 <0>         0.0460
     37 H10        -3.4327   -5.0599    4.0316 H         1 <0>         0.0831
     38 H11        -1.6627   -4.8869    4.1052 H         1 <0>         0.0398
     39 H12        -2.7093   -3.6507    4.8434 H         1 <0>         0.0383
     40 H13         0.2947    1.9054   -1.5677 H         1 <0>         0.1119
     41 H14         0.2632    3.1320   -3.6943 H         1 <0>         0.1066
     42 H15        -0.1176    1.9378   -5.8108 H         1 <0>         0.1058
     43 H16        -0.4697   -0.4924   -5.8194 H         1 <0>         0.1015
     44 H17        -2.9538   -4.6334   -5.4111 H         1 <0>         0.1594
     45 H18        -1.3637   -8.2968   -3.9036 H         1 <0>         0.1478
     46 H19         0.7887   -7.1840   -3.4695 H         1 <0>         0.1506
@<TRIPOS>BOND
     1    1    2 1
     2    1   28 1
     3    1   29 1
     4    1   30 1
     5    2    3 1
     6    2    8 am
     7    3    4 1
     8    3   31 1
     9    3   32 1
    10    4    5 1
    11    4   33 1
    12    4   34 1
    13    5    6 1
    14    5   35 1
    15    5   36 1
    16    6    7 1
    17    7   37 1
    18    7   38 1
    19    7   39 1
    20    8    9 2
    21    8   10 1
    22   10   15 ar
    23   10   11 ar
    24   11   12 ar
    25   11   40 1
    26   12   13 ar
    27   12   41 1
    28   13   14 ar
    29   13   42 1
    30   14   15 ar
    31   14   43 1
    32   15   16 1
    33   16   17 1
    34   17   18 2
    35   17   19 2
    36   17   20 1
    37   20   25 ar
    38   20   21 ar
    39   21   22 ar
    40   21   44 1
    41   22   23 ar
    42   22   27 1
    43   23   24 ar
    44   23   45 1
    45   24   25 ar
    46   24   46 1
    47   25   26 1
@<TRIPOS>MOLECULE
ZINC12436902
   35    37     0     0     0
SMALL
USER_CHARGES
2-chloro-3-(phenethylamino)naphthalene-1,4-dione
@<TRIPOS>ATOM
      1 C1          4.8043   12.4167   -0.5179 C.ar      1 <0>        -0.1356
      2 C2          4.8851   11.8136    0.7233 C.ar      1 <0>        -0.1209
      3 C3          4.9242   10.4353    0.8208 C.ar      1 <0>        -0.1183
      4 C4          4.8829    9.6600   -0.3230 C.ar      1 <0>        -0.0632
      5 C5          4.8079   10.2633   -1.5645 C.ar      1 <0>        -0.1185
      6 C6          4.7635   11.6415   -1.6617 C.ar      1 <0>        -0.1208
      7 C7          4.9260    8.1574   -0.2167 C.3       1 <0>        -0.0690
      8 C8          3.5005    7.6130   -0.1045 C.3       1 <0>         0.0727
      9 N1          3.5424    6.1522   -0.0012 N.2       1 <0>        -0.5917
     10 C9          2.3683    5.4272    0.0074 C.2       1 <0>         0.1785
     11 C10         2.4157    4.0744   -0.0093 C.2       1 <0>        -0.3547
     12 C11         1.1869    3.2792   -0.0007 C.2       1 <0>         0.4122
     13 O1          1.2482    2.0645   -0.0164 O.3       1 <0>        -0.5303
     14 C12        -0.1309    3.9538    0.0265 C.ar      1 <0>        -0.0745
     15 C13        -1.3067    3.2151    0.0354 C.ar      1 <0>        -0.0917
     16 C14        -2.5302    3.8670    0.0663 C.ar      1 <0>        -0.1056
     17 C15        -2.5881    5.2473    0.0776 C.ar      1 <0>        -0.1290
     18 C16        -1.4234    5.9984    0.0689 C.ar      1 <0>        -0.0759
     19 C17        -0.1895    5.3585    0.0434 C.ar      1 <0>        -0.1344
     20 C18         1.0675    6.1372    0.0342 C.2       1 <0>         0.4047
     21 O2          1.0343    7.3510    0.0482 O.2       1 <0>        -0.4536
     22 Cl1         3.9548    3.2718   -0.0406 Cl        1 <0>        -0.1001
     23 H1          4.7734   13.4936   -0.5940 H         1 <0>         0.1157
     24 H2          4.9173   12.4193    1.6169 H         1 <0>         0.1170
     25 H3          4.9873    9.9641    1.7905 H         1 <0>         0.1195
     26 H4          4.7800    9.6577   -2.4583 H         1 <0>         0.1195
     27 H5          4.7007   12.1127   -2.6314 H         1 <0>         0.1171
     28 H6          5.4084    7.7401   -1.1129 H         1 <0>         0.0694
     29 H7          5.4999    7.8693    0.6764 H         1 <0>         0.0696
     30 H8          3.0181    8.0303    0.7917 H         1 <0>         0.0388
     31 H9          2.9266    7.9011   -0.9976 H         1 <0>         0.0362
     32 H10        -1.2683    2.1359    0.0226 H         1 <0>         0.1361
     33 H11        -3.4442    3.2918    0.0777 H         1 <0>         0.1255
     34 H12        -3.5469    5.7440    0.0978 H         1 <0>         0.1247
     35 H13        -1.4742    7.0772    0.0816 H         1 <0>         0.1307
@<TRIPOS>BOND
     1    1    6 ar
     2    1    2 ar
     3    1   23 1
     4    2    3 ar
     5    2   24 1
     6    3    4 ar
     7    3   25 1
     8    4    5 ar
     9    4    7 1
    10    5    6 ar
    11    5   26 1
    12    6   27 1
    13    7    8 1
    14    7   28 1
    15    7   29 1
    16    8    9 1
    17    8   30 1
    18    8   31 1
    19    9   10 2
    20   10   20 1
    21   10   11 1
    22   11   12 2
    23   11   22 1
    24   12   13 1
    25   12   14 1
    26   14   19 ar
    27   14   15 ar
    28   15   16 ar
    29   15   32 1
    30   16   17 ar
    31   16   33 1
    32   17   18 ar
    33   17   34 1
    34   18   19 ar
    35   18   35 1
    36   19   20 1
    37   20   21 2
@<TRIPOS>MOLECULE
ZINC37375766
   25    26     0     0     0
SMALL
USER_CHARGES

@<TRIPOS>ATOM
      1 C1          0.4092    1.9308    0.4610 C.ar      1 <0>        -0.1346
      2 C2          1.6170    2.4198    0.9259 C.ar      1 <0>        -0.1230
      3 C3          2.7575    1.6485    0.8357 C.ar      1 <0>        -0.0909
      4 C4          2.6908    0.3730    0.2748 C.ar      1 <0>        -0.0105
      5 C5          1.4699   -0.1145   -0.1917 C.ar      1 <0>        -0.1136
      6 C6          0.3366    0.6666   -0.0963 C.ar      1 <0>        -0.1244
      7 C7          3.9112   -0.4598    0.1746 C.2       1 <0>        -0.1093
      8 C8          4.0047   -1.6381    0.8916 C.2       1 <0>        -0.0684
      9 C9          5.0625   -2.5332    0.6403 C.2       1 <0>        -0.1086
     10 C10         5.8566   -3.2327    1.5483 C.2       1 <0>        -0.1678
     11 C11         6.8190   -4.0389    0.9964 C.2       1 <0>        -0.1398
     12 C12         6.9328   -4.1018   -0.3567 C.2       1 <0>        -0.3037
     13 S1          5.7305   -3.0735   -0.9218 S.3       1 <0>         0.3746
     14 Br1         8.1596   -5.1216   -1.3722 Br        1 <0>        -0.0018
     15 C13         4.9832   -0.0490   -0.6564 C.2       1 <0>         0.5053
     16 O1          6.0410   -0.6674   -0.6424 O.co2     1 <0>        -0.6695
     17 O2          4.8523    0.9248   -1.3887 O.co2     1 <0>        -0.6735
     18 H1         -0.4815    2.5368    0.5375 H         1 <0>         0.1145
     19 H2          1.6673    3.4075    1.3599 H         1 <0>         0.1171
     20 H3          3.6999    2.0316    1.1983 H         1 <0>         0.1191
     21 H4          1.4120   -1.1011   -0.6273 H         1 <0>         0.1183
     22 H5         -0.6092    0.2904   -0.4575 H         1 <0>         0.1169
     23 H6          3.2665   -1.8722    1.6444 H         1 <0>         0.1246
     24 H7          5.7227   -3.1450    2.6164 H         1 <0>         0.1306
     25 H8          7.4780   -4.6158    1.6285 H         1 <0>         0.1183
@<TRIPOS>BOND
     1    1    6 ar
     2    1    2 ar
     3    1   18 1
     4    2    3 ar
     5    2   19 1
     6    3    4 ar
     7    3   20 1
     8    4    5 ar
     9    4    7 1
    10    5    6 ar
    11    5   21 1
    12    6   22 1
    13    7    8 2
    14    7   15 1
    15    8    9 1
    16    8   23 1
    17    9   13 1
    18    9   10 2
    19   10   11 1
    20   10   24 1
    21   11   12 2
    22   11   25 1
    23   12   13 1
    24   12   14 1
    25   15   16 2
    26   15   17 1
@<TRIPOS>MOLECULE
ZINC41958266
   34    35     0     0     0
SMALL
USER_CHARGES

@<TRIPOS>ATOM
      1 C1         -4.1156   -4.7302    3.9843 C.3       1 <0>        -0.1088
      2 C2         -3.0374   -4.6095    2.9384 C.ar      1 <0>        -0.0607
      3 C3         -3.1058   -5.3695    1.7852 C.ar      1 <0>        -0.1586
      4 C4         -2.1182   -5.2618    0.8238 C.ar      1 <0>        -0.0866
      5 C5         -1.0596   -4.3929    1.0133 C.ar      1 <0>        -0.0860
      6 C6         -0.9895   -3.6288    2.1700 C.ar      1 <0>         0.1815
      7 C7         -1.9848   -3.7356    3.1302 C.ar      1 <0>        -0.1340
      8 O1          0.0500   -2.7736    2.3591 O.3       1 <0>        -0.2851
      9 C8         -0.0083   -1.9255    3.5077 C.3       1 <0>         0.0734
     10 C9          1.1733   -0.9538    3.4848 C.3       1 <0>        -0.1177
     11 C10         0.0568   -2.7661    4.7568 C.ar      1 <0>        -0.1273
     12 C11         0.1626   -4.1409    4.6601 C.ar      1 <0>        -0.0853
     13 C12         0.2225   -4.9122    5.8056 C.ar      1 <0>        -0.1402
     14 C13         0.1765   -4.3097    7.0492 C.ar      1 <0>        -0.0995
     15 C14         0.0712   -2.9355    7.1483 C.ar      1 <0>        -0.1689
     16 C15         0.0165   -2.1614    6.0014 C.ar      1 <0>         0.1322
     17 F1         -0.0817   -0.8173    6.0971 F         1 <0>        -0.1059
     18 C16        -1.2989   -1.1475    3.4926 C.2       1 <0>         0.4848
     19 O2         -2.0949   -1.3047    2.5826 O.co2     1 <0>        -0.6615
     20 O3         -1.5470   -0.3608    4.3904 O.co2     1 <0>        -0.6601
     21 Cl1         0.1807   -4.2581   -0.1938 Cl        1 <0>        -0.0801
     22 H1         -4.9096   -4.0141    3.7719 H         1 <0>         0.0707
     23 H2         -4.5243   -5.7406    3.9700 H         1 <0>         0.0624
     24 H3         -3.6930   -4.5231    4.9674 H         1 <0>         0.0624
     25 H4         -3.9320   -6.0488    1.6355 H         1 <0>         0.1216
     26 H5         -2.1735   -5.8570   -0.0757 H         1 <0>         0.1282
     27 H6         -1.9346   -3.1392    4.0292 H         1 <0>         0.1364
     28 H7          1.0788   -0.2871    2.6276 H         1 <0>         0.0640
     29 H8          1.1786   -0.3665    4.4030 H         1 <0>         0.0853
     30 H9          2.1042   -1.5155    3.4073 H         1 <0>         0.0544
     31 H10         0.1982   -4.6126    3.6892 H         1 <0>         0.1293
     32 H11         0.3048   -5.9864    5.7291 H         1 <0>         0.1234
     33 H12         0.2226   -4.9134    7.9435 H         1 <0>         0.1256
     34 H13         0.0351   -2.4652    8.1198 H         1 <0>         0.1309
@<TRIPOS>BOND
     1    1    2 1
     2    1   22 1
     3    1   23 1
     4    1   24 1
     5    2    7 ar
     6    2    3 ar
     7    3    4 ar
     8    3   25 1
     9    4    5 ar
    10    4   26 1
    11    5    6 ar
    12    5   21 1
    13    6    7 ar
    14    6    8 1
    15    7   27 1
    16    8    9 1
    17    9   10 1
    18    9   11 1
    19    9   18 1
    20   10   28 1
    21   10   29 1
    22   10   30 1
    23   11   16 ar
    24   11   12 ar
    25   12   13 ar
    26   12   31 1
    27   13   14 ar
    28   13   32 1
    29   14   15 ar
    30   14   33 1
    31   15   16 ar
    32   15   34 1
    33   16   17 1
    34   18   19 2
    35   18   20 1
@<TRIPOS>MOLECULE
ZINC02574433
   32    33     0     0     0
SMALL
USER_CHARGES

@<TRIPOS>ATOM
      1 C1         -0.0169    1.3947    0.0097 C.ar      1 <0>        -0.0601
      2 C2          1.1693    2.0966    0.0022 C.ar      1 <0>        -0.1043
      3 C3          2.3782    1.4203   -0.0135 C.ar      1 <0>        -0.0688
      4 C4          2.4048    0.0353   -0.0212 C.ar      1 <0>        -0.1036
      5 C5          1.2267   -0.6801   -0.0138 C.ar      1 <0>        -0.0672
      6 C6          0.0021   -0.0041    0.0020 C.ar      1 <0>        -0.1447
      7 C7         -1.2596   -0.7604    0.0105 C.2       1 <0>         0.3914
      8 O1         -2.3195   -0.1714    0.0242 O.2       1 <0>        -0.4356
      9 C8         -1.2350   -2.2672    0.0022 C.3       1 <0>        -0.1585
     10 C9         -2.6689   -2.8008    0.0135 C.3       1 <0>        -0.0657
     11 H1         -3.2352   -2.3663   -0.8103 H         1 <0>         0.0883
     12 C10        -3.3476   -2.4635    1.3572 C.3       1 <0>        -0.1077
     13 C11        -4.2227   -3.7044    1.6627 C.3       1 <0>        -0.1194
     14 C12        -3.3355   -4.8768    1.1753 C.3       1 <0>        -0.0991
     15 C13        -2.6613   -4.3351   -0.1034 C.3       1 <0>        -0.1556
     16 H2         -1.6360   -4.6995   -0.1683 H         1 <0>         0.0604
     17 C14        -3.4401   -4.7639   -1.3202 C.2       1 <0>         0.4978
     18 O2         -3.0326   -5.6806   -2.0130 O.co2     1 <0>        -0.7066
     19 O3         -4.4779   -4.1941   -1.6117 O.co2     1 <0>        -0.6927
     20 Br1         4.0000    2.3925   -0.0250 Br        1 <0>        -0.0496
     21 H3         -0.9586    1.9232    0.0260 H         1 <0>         0.1432
     22 H4          1.1562    3.1765    0.0081 H         1 <0>         0.1374
     23 H5          3.3510   -0.4853   -0.0334 H         1 <0>         0.1389
     24 H6          1.2489   -1.7598   -0.0205 H         1 <0>         0.1451
     25 H7         -0.7241   -2.6173   -0.8948 H         1 <0>         0.0982
     26 H8         -0.7065   -2.6268    0.8850 H         1 <0>         0.0951
     27 H9         -2.5997   -2.3227    2.1376 H         1 <0>         0.0487
     28 H10        -3.9690   -1.5736    1.2579 H         1 <0>         0.0634
     29 H11        -4.4174   -3.7860    2.7321 H         1 <0>         0.0515
     30 H12        -5.1560   -3.6667    1.1009 H         1 <0>         0.0725
     31 H13        -2.5858   -5.1256    1.9263 H         1 <0>         0.0500
     32 H14        -3.9482   -5.7479    0.9432 H         1 <0>         0.0574
@<TRIPOS>BOND
     1    1    6 ar
     2    1    2 ar
     3    1   21 1
     4    2    3 ar
     5    2   22 1
     6    3    4 ar
     7    3   20 1
     8    4    5 ar
     9    4   23 1
    10    5    6 ar
    11    5   24 1
    12    6    7 1
    13    7    8 2
    14    7    9 1
    15    9   10 1
    16    9   25 1
    17    9   26 1
    18   10   11 1
    19   10   15 1
    20   10   12 1
    21   12   13 1
    22   12   27 1
    23   12   28 1
    24   13   14 1
    25   13   29 1
    26   13   30 1
    27   14   15 1
    28   14   31 1
    29   14   32 1
    30   15   16 1
    31   15   17 1
    32   17   18 2
    33   17   19 1
@<TRIPOS>MOLECULE
ZINC62055946
   38    39     0     0     0
SMALL
USER_CHARGES

@<TRIPOS>ATOM
      1 C1         -1.1232   -1.8126    0.8477 C.3       1 <0>        -0.1747
      2 C2          0.0200   -0.8723    0.4607 C.3       1 <0>        -0.0990
      3 C3          0.9661   -0.7027    1.6512 C.3       1 <0>        -0.0610
      4 C4          0.2204   -0.0734    2.7997 C.ar      1 <0>         0.0003
      5 C5         -1.1126    0.2637    2.6562 C.ar      1 <0>        -0.1163
      6 C6         -1.7970    0.8404    3.7095 C.ar      1 <0>        -0.0971
      7 C7         -1.1479    1.0803    4.9072 C.ar      1 <0>        -0.0982
      8 C8          0.1859    0.7428    5.0503 C.ar      1 <0>        -0.0925
      9 C9          0.8681    0.1612    3.9982 C.ar      1 <0>        -0.0930
     10 Br1        -2.0836    1.8699    6.3484 Br        1 <0>        -0.0715
     11 C10         1.4910   -2.0512    2.0717 C.2       1 <0>         0.5094
     12 O1          2.6899   -2.2721    2.0513 O.co2     1 <0>        -0.6676
     13 O2          0.7169   -2.9214    2.4323 O.co2     1 <0>        -0.6674
     14 S1          2.3533    0.3642    1.1738 S.3       1 <0>        -0.2413
     15 C11         3.1628   -0.5441   -0.1716 C.3       1 <0>        -0.0490
     16 C12         2.5050   -0.1777   -1.5056 C.3       1 <0>        -0.1509
     17 C13         3.2448   -0.8876   -2.6424 C.3       1 <0>         0.0636
     18 O3          4.6244   -0.5159   -2.6165 O.3       1 <0>        -0.3870
     19 C14         5.3032   -0.8762   -1.4117 C.3       1 <0>         0.0657
     20 C15         4.6461   -0.1658   -0.2254 C.3       1 <0>        -0.1284
     21 H1         -1.6317   -1.4227    1.7295 H         1 <0>         0.0678
     22 H2         -1.8309   -1.8834    0.0217 H         1 <0>         0.0360
     23 H3         -0.7214   -2.8017    1.0676 H         1 <0>         0.0932
     24 H4          0.5681   -1.2942   -0.3817 H         1 <0>         0.0621
     25 H5         -0.3876    0.0987    0.1794 H         1 <0>         0.0590
     26 H6         -1.6191    0.0767    1.7209 H         1 <0>         0.1469
     27 H7         -2.8383    1.1041    3.5972 H         1 <0>         0.1273
     28 H8          0.6930    0.9298    5.9853 H         1 <0>         0.1277
     29 H9          1.9083   -0.1061    4.1112 H         1 <0>         0.1339
     30 H10         3.0659   -1.6158    0.0020 H         1 <0>         0.1094
     31 H11         1.4619   -0.4939   -1.4964 H         1 <0>         0.0786
     32 H12         2.5583    0.9008   -1.6539 H         1 <0>         0.0747
     33 H13         3.1567   -1.9666   -2.5155 H         1 <0>         0.0495
     34 H14         2.8079   -0.5969   -3.5978 H         1 <0>         0.0914
     35 H15         5.2420   -1.9550   -1.2687 H         1 <0>         0.0526
     36 H16         6.3492   -0.5772   -1.4805 H         1 <0>         0.0931
     37 H17         4.7427    0.9130   -0.3479 H         1 <0>         0.0682
     38 H18         5.1343   -0.4735    0.6993 H         1 <0>         0.0843
@<TRIPOS>BOND
     1    1    2 1
     2    1   21 1
     3    1   22 1
     4    1   23 1
     5    2    3 1
     6    2   24 1
     7    2   25 1
     8    3    4 1
     9    3   11 1
    10    3   14 1
    11    4    9 ar
    12    4    5 ar
    13    5    6 ar
    14    5   26 1
    15    6    7 ar
    16    6   27 1
    17    7    8 ar
    18    7   10 1
    19    8    9 ar
    20    8   28 1
    21    9   29 1
    22   11   12 2
    23   11   13 1
    24   14   15 1
    25   15   20 1
    26   15   16 1
    27   15   30 1
    28   16   17 1
    29   16   31 1
    30   16   32 1
    31   17   18 1
    32   17   33 1
    33   17   34 1
    34   18   19 1
    35   19   20 1
    36   19   35 1
    37   19   36 1
    38   20   37 1
    39   20   38 1
@<TRIPOS>MOLECULE
ZINC04598408
   55    58     0     0     0
SMALL
USER_CHARGES
N-(2,3-dimethylcyclohexyl)-4-[(3,3-dioxo-3$l^{6},6-dithia-8-azabicyclo[3.3.0]oct-7-en-7-yl)amino]benzamide
@<TRIPOS>ATOM
      1 C1         -0.5779    0.0891    2.4100 C.3       1 <0>        -0.1498
      2 C2         -1.3080    0.6562    1.1909 C.3       1 <0>        -0.0837
      3 H1         -1.4327    1.7325    1.3103 H         1 <0>         0.0727
      4 C3         -2.6818   -0.0056    1.0657 C.3       1 <0>        -0.1188
      5 C4         -3.4119    0.5616   -0.1534 C.3       1 <0>        -0.1172
      6 C5         -2.5932    0.2798   -1.4148 C.3       1 <0>        -0.1307
      7 C6         -1.2194    0.9416   -1.2896 C.3       1 <0>         0.1511
      8 H2         -1.3441    2.0178   -1.1703 H         1 <0>         0.0893
      9 C7         -0.4893    0.3745   -0.0706 C.3       1 <0>        -0.0935
     10 H3          0.4894    0.8459    0.0186 H         1 <0>         0.0761
     11 C8         -0.3143   -1.1362   -0.2381 C.3       1 <0>        -0.1561
     12 N1         -0.4355    0.6718   -2.4975 N.am      1 <0>        -0.7233
     13 C9         -0.5738    1.4614   -3.5810 C.2       1 <0>         0.5612
     14 O1         -1.3492    2.3977   -3.5559 O.2       1 <0>        -0.5364
     15 C10         0.2157    1.1897   -4.7976 C.ar      1 <0>        -0.1562
     16 C11         1.1117    0.1173   -4.8260 C.ar      1 <0>        -0.0598
     17 C12         1.8435   -0.1361   -5.9639 C.ar      1 <0>        -0.1350
     18 C13         1.6992    0.6799   -7.0820 C.ar      1 <0>         0.1873
     19 C14         0.8118    1.7517   -7.0551 C.ar      1 <0>        -0.1561
     20 C15         0.0735    2.0076   -5.9220 C.ar      1 <0>        -0.0314
     21 N2          2.4450    0.4237   -8.2304 N.pl3     1 <0>        -0.6186
     22 C16         3.6824   -0.1742   -8.1293 C.2       1 <0>         0.4358
     23 N3          4.3227   -0.4627   -7.0410 N.2       1 <0>        -0.5829
     24 C17         5.6365   -1.0775   -7.0609 C.3       1 <0>         0.0931
     25 H4          5.5637   -2.0249   -6.5269 H         1 <0>         0.1264
     26 C18         6.6091   -0.1729   -6.2675 C.3       1 <0>        -0.5539
     27 S1          8.1757   -0.3705   -7.2204 S.o2      1 <0>         2.3746
     28 O2          8.8822    0.8624   -7.2254 O.2       1 <0>        -0.9220
     29 O3          8.8332   -1.5594   -6.8038 O.2       1 <0>        -0.9186
     30 C19         7.4196   -0.6562   -8.8726 C.3       1 <0>        -0.5640
     31 C20         6.1192   -1.3858   -8.4859 C.3       1 <0>        -0.0723
     32 H5          6.2090   -2.4612   -8.6394 H         1 <0>         0.1500
     33 S2          4.7324   -0.7017   -9.4692 S.3       1 <0>        -0.1727
     34 H6          0.4008    0.5605    2.4992 H         1 <0>         0.0547
     35 H7         -1.1611    0.2898    3.3087 H         1 <0>         0.0563
     36 H8         -0.4532   -0.9872    2.2906 H         1 <0>         0.0587
     37 H9         -2.5571   -1.0818    0.9463 H         1 <0>         0.0665
     38 H10        -3.2650    0.1952    1.9644 H         1 <0>         0.0641
     39 H11        -4.3906    0.0901   -0.2425 H         1 <0>         0.0655
     40 H12        -3.5366    1.6378   -0.0340 H         1 <0>         0.0644
     41 H13        -2.4685   -0.7964   -1.5342 H         1 <0>         0.0668
     42 H14        -3.1134    0.6839   -2.2833 H         1 <0>         0.0670
     43 H15        -1.2930   -1.6077   -0.3273 H         1 <0>         0.0662
     44 H16         0.2690   -1.3370   -1.1368 H         1 <0>         0.0490
     45 H17         0.2059   -1.5403    0.6304 H         1 <0>         0.0638
     46 H18         0.1830   -0.0751   -2.5175 H         1 <0>         0.3979
     47 H19         1.2272   -0.5139   -3.9573 H         1 <0>         0.1273
     48 H20         2.5335   -0.9666   -5.9877 H         1 <0>         0.1473
     49 H21         0.7026    2.3835   -7.9242 H         1 <0>         0.1353
     50 H22        -0.6147    2.8397   -5.9017 H         1 <0>         0.1423
     51 H23         2.0933    0.6661   -9.1013 H         1 <0>         0.4313
     52 H24         6.2740    0.8642   -6.2794 H         1 <0>         0.1468
     53 H25         6.7274   -0.5309   -5.2448 H         1 <0>         0.1529
     54 H26         8.0504   -1.2844   -9.5016 H         1 <0>         0.1575
     55 H27         7.2063    0.2954   -9.3595 H         1 <0>         0.1538
@<TRIPOS>BOND
     1    1    2 1
     2    1   34 1
     3    1   35 1
     4    1   36 1
     5    2    3 1
     6    2    9 1
     7    2    4 1
     8    4    5 1
     9    4   37 1
    10    4   38 1
    11    5    6 1
    12    5   39 1
    13    5   40 1
    14    6    7 1
    15    6   41 1
    16    6   42 1
    17    7    8 1
    18    7    9 1
    19    7   12 1
    20    9   10 1
    21    9   11 1
    22   11   43 1
    23   11   44 1
    24   11   45 1
    25   12   13 am
    26   12   46 1
    27   13   14 2
    28   13   15 1
    29   15   20 ar
    30   15   16 ar
    31   16   17 ar
    32   16   47 1
    33   17   18 ar
    34   17   48 1
    35   18   19 ar
    36   18   21 1
    37   19   20 ar
    38   19   49 1
    39   20   50 1
    40   21   22 1
    41   21   51 1
    42   22   33 1
    43   22   23 2
    44   23   24 1
    45   24   25 1
    46   24   31 1
    47   24   26 1
    48   26   27 1
    49   26   52 1
    50   26   53 1
    51   27   28 2
    52   27   29 2
    53   27   30 1
    54   30   31 1
    55   30   54 1
    56   30   55 1
    57   31   32 1
    58   31   33 1
@<TRIPOS>MOLECULE
ZINC15955664
   52    56     0     0     0
SMALL
USER_CHARGES
(3-chlorophenyl)-(3-hydroxypropyl)BLAHdione
@<TRIPOS>ATOM
      1 C1          1.0599   -4.4435   -0.0203 C.ar      1 <0>        -0.1471
      2 C2         -0.2867   -4.5213    0.2955 C.ar      1 <0>        -0.0944
      3 C3         -1.0779   -3.3949    0.4399 C.ar      1 <0>        -0.1303
      4 C4         -0.4590   -2.1607    0.2522 C.ar      1 <0>         0.1079
      5 C5          0.9200   -2.0871   -0.0719 C.ar      1 <0>        -0.0997
      6 C6          1.6961   -3.2418   -0.2110 C.ar      1 <0>        -0.0641
      7 C7          1.2274   -0.6766   -0.1953 C.2       1 <0>        -0.1502
      8 C8          0.0835   -0.0004    0.0459 C.2       1 <0>         0.0553
      9 N1         -0.9301   -0.8810    0.3165 N.pl3     1 <0>        -0.5714
     10 H1         -1.8448   -0.6327    0.5228 H         1 <0>         0.4180
     11 C9         -0.0184    1.5076    0.0103 C.3       1 <0>         0.2532
     12 H2         -0.5739    1.8204   -0.8738 H         1 <0>         0.1085
     13 N2          1.3580    2.0443   -0.0454 N.am      1 <0>        -0.5940
     14 C10         2.3001    1.4138   -0.9691 C.3       1 <0>         0.1376
     15 H3          1.8613    1.4034   -1.9668 H         1 <0>         0.1226
     16 C11         2.5508   -0.0337   -0.5231 C.3       1 <0>        -0.0437
     17 C12         3.5967    2.1555   -1.0196 C.2       1 <0>         0.5171
     18 O1          4.4342    1.7817   -1.8132 O.2       1 <0>        -0.5259
     19 N3          3.9065    3.1959   -0.2720 N.am      1 <0>        -0.5943
     20 C13         3.0124    3.7572    0.7270 C.3       1 <0>         0.0989
     21 C14         1.6853    3.0709    0.7421 C.2       1 <0>         0.5106
     22 O2          0.8490    3.4743    1.5222 O.2       1 <0>        -0.4955
     23 C15         5.2223    3.8158   -0.4468 C.3       1 <0>         0.1112
     24 C16         6.2314    3.1421    0.4852 C.3       1 <0>        -0.1369
     25 C17         7.6055    3.7895    0.3026 C.3       1 <0>         0.0797
     26 O3          8.5480    3.1603    1.1731 O.3       1 <0>        -0.5742
     27 C18        -0.7113    2.0033    1.2534 C.ar      1 <0>        -0.0314
     28 C19        -1.7832    2.8702    1.1482 C.ar      1 <0>        -0.1116
     29 C20        -2.4192    3.3253    2.2879 C.ar      1 <0>        -0.0964
     30 C21        -1.9841    2.9136    3.5337 C.ar      1 <0>        -0.1145
     31 C22        -0.9119    2.0459    3.6396 C.ar      1 <0>        -0.0237
     32 C23        -0.2787    1.5868    2.4981 C.ar      1 <0>        -0.0798
     33 Cl1        -0.3653    1.5278    5.2037 Cl        1 <0>        -0.0743
     34 H4          1.6272   -5.3571   -0.1201 H         1 <0>         0.1201
     35 H5         -0.7344   -5.4943    0.4342 H         1 <0>         0.1226
     36 H6         -2.1268   -3.4692    0.6863 H         1 <0>         0.1290
     37 H7          2.7466   -3.1909   -0.4565 H         1 <0>         0.1305
     38 H8          3.1882   -0.0384    0.3610 H         1 <0>         0.0810
     39 H9          3.0355   -0.5855   -1.3285 H         1 <0>         0.1022
     40 H10         2.8615    4.8152    0.5128 H         1 <0>         0.1169
     41 H11         3.4738    3.6574    1.7095 H         1 <0>         0.1122
     42 H12         5.5460    3.6956   -1.4807 H         1 <0>         0.0986
     43 H13         5.1586    4.8773   -0.2071 H         1 <0>         0.0867
     44 H14         5.9076    3.2623    1.5191 H         1 <0>         0.0715
     45 H15         6.2950    2.0807    0.2455 H         1 <0>         0.0777
     46 H16         7.9293    3.6693   -0.7313 H         1 <0>         0.0500
     47 H17         7.5419    4.8510    0.5423 H         1 <0>         0.0476
     48 H18         9.4430    3.5211    1.1106 H         1 <0>         0.3832
     49 H19        -2.1235    3.1922    0.1751 H         1 <0>         0.1235
     50 H20        -3.2564    4.0025    2.2050 H         1 <0>         0.1300
     51 H21        -2.4813    3.2689    4.4241 H         1 <0>         0.1293
     52 H22         0.5560    0.9064    2.5800 H         1 <0>         0.1203
@<TRIPOS>BOND
     1    1    6 ar
     2    1    2 ar
     3    1   34 1
     4    2    3 ar
     5    2   35 1
     6    3    4 ar
     7    3   36 1
     8    4    9 1
     9    4    5 ar
    10    5    6 ar
    11    5    7 1
    12    6   37 1
    13    7   16 1
    14    7    8 2
    15    8    9 1
    16    8   11 1
    17    9   10 1
    18   11   12 1
    19   11   13 1
    20   11   27 1
    21   13   21 am
    22   13   14 1
    23   14   15 1
    24   14   16 1
    25   14   17 1
    26   16   38 1
    27   16   39 1
    28   17   18 2
    29   17   19 am
    30   19   20 1
    31   19   23 1
    32   20   21 1
    33   20   40 1
    34   20   41 1
    35   21   22 2
    36   23   24 1
    37   23   42 1
    38   23   43 1
    39   24   25 1
    40   24   44 1
    41   24   45 1
    42   25   26 1
    43   25   46 1
    44   25   47 1
    45   26   48 1
    46   27   32 ar
    47   27   28 ar
    48   28   29 ar
    49   28   49 1
    50   29   30 ar
    51   29   50 1
    52   30   31 ar
    53   30   51 1
    54   31   32 ar
    55   31   33 1
    56   32   52 1
@<TRIPOS>MOLECULE
ZINC36736338
   34    35     0     0     0
SMALL
USER_CHARGES

@<TRIPOS>ATOM
      1 C1          2.0881   -2.2435   -0.9475 C.3       1 <0>        -0.0949
      2 C2          0.7883   -1.7589   -0.3586 C.2       1 <0>         0.1077
      3 C3         -0.1176   -0.9537   -0.9689 C.2       1 <0>        -0.0283
      4 C4         -1.1791   -0.7465   -0.0763 C.2       1 <0>         0.0919
      5 N1         -0.9230   -1.4007    1.0278 N.2       1 <0>        -0.2807
      6 N2          0.3073   -2.0536    0.8785 N.pl3     1 <0>        -0.4692
      7 H1          0.7403   -2.6145    1.5409 H         1 <0>         0.4465
      8 C5         -2.4053    0.0880   -0.3427 C.3       1 <0>        -0.0770
      9 N3         -0.0106   -0.4205   -2.2676 N.pl3     1 <0>        -1.0120
     10 S1          0.1362   -1.4338   -3.5692 S.o2      1 <0>         2.6960
     11 O1          0.1586   -0.6086   -4.7258 O.2       1 <0>        -0.9444
     12 O2          1.1848   -2.3418   -3.2607 O.2       1 <0>        -0.9426
     13 C6         -1.3441   -2.3854   -3.6581 C.ar      1 <0>        -0.6790
     14 C7         -1.2985   -3.7538   -3.4710 C.ar      1 <0>         0.0171
     15 C8         -2.4602   -4.5017   -3.5402 C.ar      1 <0>        -0.0607
     16 C9         -3.6704   -3.8816   -3.7972 C.ar      1 <0>        -0.0151
     17 C10        -3.7203   -2.5135   -3.9854 C.ar      1 <0>        -0.1303
     18 C11        -2.5562   -1.7608   -3.9102 C.ar      1 <0>         0.2341
     19 O3         -2.6036   -0.4141   -4.0893 O.3       1 <0>        -0.3305
     20 C12        -2.5993    0.0616   -5.4368 C.3       1 <0>         0.0263
     21 Br1        -5.3739   -1.6663   -4.3373 Br        1 <0>        -0.0072
     22 Cl1        -2.3998   -6.2206   -3.3047 Cl        1 <0>        -0.0391
     23 H2          1.9210   -3.1842   -1.4722 H         1 <0>         0.1061
     24 H3          2.4696   -1.4999   -1.6472 H         1 <0>         0.0902
     25 H4          2.8140   -2.3969   -0.1488 H         1 <0>         0.0695
     26 H5         -3.2098   -0.5530   -0.7032 H         1 <0>         0.0783
     27 H6         -2.7176    0.5795    0.5787 H         1 <0>         0.0772
     28 H7         -2.1755    0.8412   -1.0964 H         1 <0>         0.0816
     29 H8         -0.0229    0.5403   -2.4000 H         1 <0>         0.4263
     30 H9         -0.3550   -4.2399   -3.2710 H         1 <0>         0.1643
     31 H10        -4.5762   -4.4673   -3.8512 H         1 <0>         0.1571
     32 H11        -2.5418    1.1501   -5.4376 H         1 <0>         0.1105
     33 H12        -1.7377   -0.3481   -5.9640 H         1 <0>         0.0750
     34 H13        -3.5150   -0.2542   -5.9366 H         1 <0>         0.0553
@<TRIPOS>BOND
     1    1    2 1
     2    1   23 1
     3    1   24 1
     4    1   25 1
     5    2    6 1
     6    2    3 2
     7    3    4 1
     8    3    9 1
     9    4    5 2
    10    4    8 1
    11    5    6 1
    12    6    7 1
    13    8   26 1
    14    8   27 1
    15    8   28 1
    16    9   10 1
    17    9   29 1
    18   10   11 2
    19   10   12 2
    20   10   13 1
    21   13   18 ar
    22   13   14 ar
    23   14   15 ar
    24   14   30 1
    25   15   16 ar
    26   15   22 1
    27   16   17 ar
    28   16   31 1
    29   17   18 ar
    30   17   21 1
    31   18   19 1
    32   19   20 1
    33   20   32 1
    34   20   33 1
    35   20   34 1
@<TRIPOS>MOLECULE
ZINC48652343
   62    64     0     0     0
SMALL
USER_CHARGES

@<TRIPOS>ATOM
      1 C1          1.4700   -0.8142   -3.1257 C.3       1 <0>        -0.1466
      2 C2          1.1624   -1.8967   -2.0892 C.3       1 <0>        -0.1096
      3 H1          1.8335   -2.7428   -2.2367 H         1 <0>         0.0787
      4 C3         -0.2872   -2.3605   -2.2497 C.3       1 <0>        -0.1109
      5 C4         -0.5861   -3.4664   -1.2350 C.3       1 <0>        -0.1073
      6 H2         -1.6114   -3.8125   -1.3654 H         1 <0>         0.0849
      7 C5         -0.4093   -2.9143    0.1830 C.3       1 <0>         0.1140
      8 N1          0.9357   -2.3349    0.3006 N.am      1 <0>        -0.6008
      9 C6          1.3598   -1.3270   -0.6809 C.3       1 <0>         0.1008
     10 C7          1.7654   -2.7205    1.2902 C.2       1 <0>         0.5585
     11 O1          1.3809   -3.5068    2.1342 O.2       1 <0>        -0.5250
     12 C8          3.1402   -2.1885    1.3495 C.ar      1 <0>        -0.1525
     13 C9          3.3614   -0.8096    1.3282 C.ar      1 <0>        -0.0724
     14 C10         4.6480   -0.3188    1.3838 C.ar      1 <0>        -0.1338
     15 C11         5.7255   -1.1866    1.4610 C.ar      1 <0>        -0.0779
     16 C12         5.5228   -2.5516    1.4830 C.ar      1 <0>        -0.1265
     17 C13         4.2329   -3.0645    1.4336 C.ar      1 <0>         0.1868
     18 N2          4.0258   -4.4399    1.4620 N.am      1 <0>        -0.6357
     19 C14         4.8671   -5.2339    2.1536 C.2       1 <0>         0.5123
     20 O2          5.8448   -4.7583    2.6929 O.2       1 <0>        -0.4970
     21 C15         4.5962   -6.6991    2.2562 C.2       1 <0>         0.5117
     22 O3          3.6185   -7.1747    1.7169 O.2       1 <0>        -0.5077
     23 N3          5.4374   -7.4931    2.9478 N.am      1 <0>        -0.6969
     24 C16         5.1716   -8.9303    3.0486 C.3       1 <0>         0.1488
     25 C17         4.1431   -9.1705    4.1725 C.3       1 <0>        -0.1259
     26 C18         3.4967  -10.5110    3.9503 C.3       1 <0>        -0.1167
     27 C19         4.1921  -11.6384    4.7370 C.3       1 <0>        -0.1190
     28 C20         5.7287  -11.5307    4.7029 C.3       1 <0>        -0.1225
     29 C21         6.2497  -11.1574    3.3415 C.3       1 <0>        -0.1095
     30 C22         6.4274   -9.6262    3.2876 C.3       1 <0>        -0.1336
     31 C23         0.3785   -4.6339   -1.4530 C.3       1 <0>        -0.1471
     32 H3          2.5021   -0.4834   -3.0103 H         1 <0>         0.0579
     33 H4          1.3283   -1.2197   -4.1276 H         1 <0>         0.0601
     34 H5          0.7986    0.0317   -2.9779 H         1 <0>         0.0577
     35 H6         -0.9587   -1.5192   -2.0783 H         1 <0>         0.0657
     36 H7         -0.4361   -2.7439   -3.2591 H         1 <0>         0.0680
     37 H8         -1.1569   -2.1436    0.3708 H         1 <0>         0.0701
     38 H9         -0.5240   -3.7215    0.9064 H         1 <0>         0.0950
     39 H10         2.4120   -1.0872   -0.5279 H         1 <0>         0.0944
     40 H11         0.7568   -0.4266   -0.5632 H         1 <0>         0.0730
     41 H12         2.5252   -0.1288    1.2677 H         1 <0>         0.1339
     42 H13         4.8173    0.7477    1.3668 H         1 <0>         0.1333
     43 H14         6.7301   -0.7924    1.5038 H         1 <0>         0.1342
     44 H15         6.3678   -3.2216    1.5429 H         1 <0>         0.1497
     45 H16         3.2760   -4.8274    0.9840 H         1 <0>         0.4238
     46 H17         6.2188   -7.1130    3.3789 H         1 <0>         0.4119
     47 H18         4.7495   -9.2777    2.1056 H         1 <0>         0.0901
     48 H19         4.6479   -9.1630    5.1386 H         1 <0>         0.0709
     49 H20         3.3837   -8.3890    4.1470 H         1 <0>         0.0689
     50 H21         2.4535  -10.4554    4.2614 H         1 <0>         0.0636
     51 H22         3.5334  -10.7483    2.8871 H         1 <0>         0.0635
     52 H23         3.8600  -11.5997    5.7745 H         1 <0>         0.0597
     53 H24         3.8974  -12.5976    4.3114 H         1 <0>         0.0606
     54 H25         6.0453  -10.7745    5.4212 H         1 <0>         0.0620
     55 H26         6.1560  -12.4906    4.9930 H         1 <0>         0.0614
     56 H27         7.2103  -11.6436    3.1711 H         1 <0>         0.0705
     57 H28         5.5373  -11.4704    2.5783 H         1 <0>         0.0702
     58 H29         7.1254   -9.3797    2.4875 H         1 <0>         0.0701
     59 H30         6.8448   -9.2856    4.2351 H         1 <0>         0.0710
     60 H31         1.4036   -4.2876   -1.3214 H         1 <0>         0.0537
     61 H32         0.1653   -5.4213   -0.7301 H         1 <0>         0.0570
     62 H33         0.2538   -5.0244   -2.4630 H         1 <0>         0.0566
@<TRIPOS>BOND
     1    1    2 1
     2    1   32 1
     3    1   33 1
     4    1   34 1
     5    2    3 1
     6    2    9 1
     7    2    4 1
     8    4    5 1
     9    4   35 1
    10    4   36 1
    11    5    6 1
    12    5    7 1
    13    5   31 1
    14    7    8 1
    15    7   37 1
    16    7   38 1
    17    8    9 1
    18    8   10 am
    19    9   39 1
    20    9   40 1
    21   10   11 2
    22   10   12 1
    23   12   17 ar
    24   12   13 ar
    25   13   14 ar
    26   13   41 1
    27   14   15 ar
    28   14   42 1
    29   15   16 ar
    30   15   43 1
    31   16   17 ar
    32   16   44 1
    33   17   18 1
    34   18   19 am
    35   18   45 1
    36   19   20 2
    37   19   21 1
    38   21   22 2
    39   21   23 am
    40   23   24 1
    41   23   46 1
    42   24   30 1
    43   24   25 1
    44   24   47 1
    45   25   26 1
    46   25   48 1
    47   25   49 1
    48   26   27 1
    49   26   50 1
    50   26   51 1
    51   27   28 1
    52   27   52 1
    53   27   53 1
    54   28   29 1
    55   28   54 1
    56   28   55 1
    57   29   30 1
    58   29   56 1
    59   29   57 1
    60   30   58 1
    61   30   59 1
    62   31   60 1
    63   31   61 1
    64   31   62 1
@<TRIPOS>MOLECULE
ZINC66406843
   41    43     0     0     0
SMALL
USER_CHARGES

@<TRIPOS>ATOM
      1 C1         -0.2727    0.4859   -5.4767 C.3       1 <0>        -0.1738
      2 C2         -0.2881   -0.9218   -4.9389 C.2       1 <0>         0.5095
      3 O1          0.1314   -1.8351   -5.6180 O.2       1 <0>        -0.5258
      4 N1         -0.7680   -1.1659   -3.7033 N.am      1 <0>        -0.6753
      5 C3         -0.8642   -2.4833   -3.2370 C.ar      1 <0>         0.1295
      6 C4          0.1063   -3.4147   -3.5824 C.ar      1 <0>        -0.1004
      7 C5          0.0116   -4.7130   -3.1229 C.ar      1 <0>        -0.1231
      8 C6         -1.0541   -5.0876   -2.3147 C.ar      1 <0>         0.1317
      9 C7         -2.0244   -4.1559   -1.9690 C.ar      1 <0>        -0.0940
     10 C8         -1.9269   -2.8564   -2.4246 C.ar      1 <0>        -0.1250
     11 N2         -1.1505   -6.4043   -1.8490 N.am      1 <0>        -0.6693
     12 C9         -2.3565   -6.9978   -1.7509 C.2       1 <0>         0.5701
     13 O2         -3.3646   -6.3781   -2.0352 O.2       1 <0>        -0.4854
     14 C10        -2.4543   -8.3927   -1.3008 C.2       1 <0>        -0.1040
     15 C11        -3.6942   -8.9636   -1.0841 C.2       1 <0>         0.0991
     16 C12        -4.8709   -8.2009   -1.2882 C.2       1 <0>         0.0503
     17 C13        -5.8208   -8.5966   -2.2172 C.2       1 <0>        -0.2500
     18 S1         -6.9881   -7.3924   -2.0807 S.3       1 <0>         0.1531
     19 C14        -6.2028   -6.4094   -0.8167 C.2       1 <0>         0.1448
     20 N3         -5.0938   -7.0868   -0.5863 N.2       1 <0>        -0.4343
     21 C15        -6.6751   -5.1600   -0.1856 C.2       1 <0>        -0.0661
     22 C16        -7.9380   -4.6407   -0.4783 C.2       1 <0>        -0.1365
     23 C17        -8.2755   -3.4934    0.1519 C.2       1 <0>        -0.2011
     24 S2         -6.8299   -3.1601    1.1385 S.3       1 <0>         0.1908
     25 C18        -5.8921   -4.4841    0.7037 C.2       1 <0>        -0.1904
     26 C19        -1.2649   -9.1609   -1.0865 C.1       1 <0>         0.2410
     27 N4         -0.3214   -9.7703   -0.9165 N.1       1 <0>        -0.3924
     28 H1          0.1475    0.4860   -6.4825 H         1 <0>         0.0969
     29 H2         -1.2908    0.8740   -5.5082 H         1 <0>         0.0922
     30 H3          0.3364    1.1159   -4.8284 H         1 <0>         0.0921
     31 H4         -1.0467   -0.4294   -3.1370 H         1 <0>         0.4120
     32 H5          0.9349   -3.1235   -4.2108 H         1 <0>         0.1412
     33 H6          0.7659   -5.4375   -3.3921 H         1 <0>         0.1287
     34 H7         -2.8532   -4.4471   -1.3408 H         1 <0>         0.1415
     35 H8         -2.6792   -2.1309   -2.1524 H         1 <0>         0.1293
     36 H9         -0.3492   -6.8895   -1.5970 H         1 <0>         0.4085
     37 H10        -3.7662   -9.9911   -0.7592 H         1 <0>         0.1584
     38 H11        -5.8132   -9.4602   -2.8657 H         1 <0>         0.2006
     39 H12        -8.6082   -5.1287   -1.1704 H         1 <0>         0.1429
     40 H13        -9.1895   -2.9231    0.0762 H         1 <0>         0.1919
     41 H14        -4.9005   -4.7396    1.0469 H         1 <0>         0.1907
@<TRIPOS>BOND
     1    1    2 1
     2    1   28 1
     3    1   29 1
     4    1   30 1
     5    2    3 2
     6    2    4 am
     7    4    5 1
     8    4   31 1
     9    5   10 ar
    10    5    6 ar
    11    6    7 ar
    12    6   32 1
    13    7    8 ar
    14    7   33 1
    15    8    9 ar
    16    8   11 1
    17    9   10 ar
    18    9   34 1
    19   10   35 1
    20   11   12 am
    21   11   36 1
    22   12   13 2
    23   12   14 1
    24   14   15 2
    25   14   26 1
    26   15   16 1
    27   15   37 1
    28   16   20 1
    29   16   17 2
    30   17   18 1
    31   17   38 1
    32   18   19 1
    33   19   20 2
    34   19   21 1
    35   21   25 2
    36   21   22 1
    37   22   23 2
    38   22   39 1
    39   23   24 1
    40   23   40 1
    41   24   25 1
    42   25   41 1
    43   26   27 3
@<TRIPOS>MOLECULE
ZINC05016007
   38    40     0     0     0
SMALL
USER_CHARGES
2-(1-cyclopentyl-2,5-dioxo-pyrrolidin-3-yl)sulfanylbenzoic acid
@<TRIPOS>ATOM
      1 C1         -2.0661   -2.3853   -4.2468 C.ar      1 <0>        -0.1440
      2 C2         -2.7770   -1.2865   -3.7883 C.ar      1 <0>        -0.1025
      3 C3         -2.6100   -0.8360   -2.4957 C.ar      1 <0>        -0.1530
      4 C4         -1.7243   -1.4833   -1.6413 C.ar      1 <0>        -0.0830
      5 C5         -1.0026   -2.5968   -2.1029 C.ar      1 <0>        -0.1017
      6 C6         -1.1842   -3.0402   -3.4164 C.ar      1 <0>        -0.0574
      7 C7         -0.0616   -3.2924   -1.2093 C.2       1 <0>         0.4847
      8 O1          0.0928   -2.9038   -0.0682 O.co2     1 <0>        -0.5958
      9 S1         -1.5087   -0.9107    0.0111 S.3       1 <0>         0.0924
     10 C8         -2.5799    0.5480   -0.0195 C.3       1 <0>        -0.2153
     11 H1         -2.3948    1.1397   -0.9161 H         1 <0>         0.1379
     12 C9         -4.0632    0.1340    0.0650 C.3       1 <0>        -0.1506
     13 C10        -4.5396    0.7816    1.3469 C.2       1 <0>         0.5347
     14 O2         -5.6632    0.7068    1.7959 O.2       1 <0>        -0.4785
     15 N1         -3.5235    1.4496    1.9069 N.am      1 <0>        -0.5661
     16 C11        -2.3741    1.3859    1.2235 C.2       1 <0>         0.5558
     17 O3         -1.3335    1.9160    1.5487 O.2       1 <0>        -0.4655
     18 C12        -3.6583    2.1893    3.1642 C.3       1 <0>         0.1234
     19 C13        -4.1485    1.2462    4.2823 C.3       1 <0>        -0.1353
     20 C14        -5.1065    2.1233    5.1262 C.3       1 <0>        -0.1180
     21 C15        -5.8262    2.9751    4.0512 C.3       1 <0>        -0.1194
     22 C16        -4.7250    3.2886    3.0173 C.3       1 <0>        -0.1286
     23 H2         -2.2049   -2.7294   -5.2611 H         1 <0>         0.1195
     24 H3         -3.4664   -0.7805   -4.4478 H         1 <0>         0.1185
     25 H4         -3.1710    0.0178   -2.1453 H         1 <0>         0.1205
     26 H5         -0.6336   -3.8956   -3.7792 H         1 <0>         0.1357
     27 H6         -4.6186    0.5205   -0.7895 H         1 <0>         0.1193
     28 H7         -4.1560   -0.9503    0.1255 H         1 <0>         0.1298
     29 H8         -2.7015    2.6321    3.4410 H         1 <0>         0.1084
     30 H9         -4.6834    0.3968    3.8576 H         1 <0>         0.0815
     31 H10        -3.3095    0.9053    4.8889 H         1 <0>         0.0739
     32 H11        -4.5456    2.7591    5.8111 H         1 <0>         0.0684
     33 H12        -5.8200    1.5035    5.6693 H         1 <0>         0.0707
     34 H13        -6.2115    3.8958    4.4892 H         1 <0>         0.0650
     35 H14        -6.6321    2.4048    3.5892 H         1 <0>         0.0748
     36 H15        -4.2861    4.2647    3.2236 H         1 <0>         0.0737
     37 H16        -5.1424    3.2716    2.0105 H         1 <0>         0.0686
     38 O4          0.6285   -4.3602   -1.6567 O.co2     1 <0>        -0.7422
@<TRIPOS>BOND
     1    1    6 ar
     2    1    2 ar
     3    1   23 1
     4    2    3 ar
     5    2   24 1
     6    3    4 ar
     7    3   25 1
     8    4    5 ar
     9    4    9 1
    10    5    6 ar
    11    5    7 1
    12    6   26 1
    13    7    8 2
    14    7   38 1
    15    9   10 1
    16   10   11 1
    17   10   16 1
    18   10   12 1
    19   12   13 1
    20   12   27 1
    21   12   28 1
    22   13   14 2
    23   13   15 am
    24   15   16 am
    25   15   18 1
    26   16   17 2
    27   18   22 1
    28   18   19 1
    29   18   29 1
    30   19   20 1
    31   19   30 1
    32   19   31 1
    33   20   21 1
    34   20   32 1
    35   20   33 1
    36   21   22 1
    37   21   34 1
    38   21   35 1
    39   22   36 1
    40   22   37 1
@<TRIPOS>MOLECULE
ZINC36047707
   28    29     0     0     0
SMALL
USER_CHARGES

@<TRIPOS>ATOM
      1 C1         -0.0184    1.5028    0.0103 C.3       1 <0>        -0.0876
      2 C2          0.0021   -0.0041    0.0020 C.2       1 <0>         0.1014
      3 C3          0.0086   -0.8173   -1.1171 C.2       1 <0>        -0.2659
      4 C4          0.0286   -2.1556   -0.6587 C.2       1 <0>         0.0951
      5 N1          0.0336   -2.1356    0.6454 N.2       1 <0>        -0.3209
      6 N2          0.0232   -0.8057    1.0802 N.pl3     1 <0>        -0.3378
      7 C5          0.0300   -0.3808    2.4167 C.ar      1 <0>         0.1621
      8 C6          0.7025    0.7806    2.7728 C.ar      1 <0>        -0.1029
      9 C7          0.7085    1.1987    4.0885 C.ar      1 <0>        -0.0973
     10 C8          0.0427    0.4585    5.0550 C.ar      1 <0>         0.0851
     11 C9         -0.6294   -0.7022    4.6997 C.ar      1 <0>        -0.1686
     12 C10        -0.6405   -1.1183    3.3833 C.ar      1 <0>        -0.0777
     13 O1          0.0494    0.8703    6.3504 O.3       1 <0>        -0.3088
     14 C11        -0.6565    0.0600    7.2924 C.3       1 <0>         0.6033
     15 F1         -0.1076   -1.2268    7.3042 F         1 <0>        -0.1649
     16 F2         -0.5476    0.6251    8.5675 F         1 <0>        -0.1331
     17 F3         -2.0052   -0.0116    6.9276 F         1 <0>        -0.1648
     18 C12        -0.0036   -0.3744   -2.5187 C.2       1 <0>         0.5516
     19 O2          0.0040   -1.2003   -3.4214 O.co2     1 <0>        -0.6914
     20 O3         -0.0213    0.8203   -2.7826 O.co2     1 <0>        -0.6904
     21 H1          1.0042    1.8801    0.0026 H         1 <0>         0.0753
     22 H2         -0.5455    1.8639   -0.8728 H         1 <0>         0.1109
     23 H3         -0.5286    1.8543    0.9071 H         1 <0>         0.0571
     24 H4          0.0378   -3.0390   -1.2799 H         1 <0>         0.1905
     25 H5          1.2211    1.3566    2.0207 H         1 <0>         0.1500
     26 H6          1.2319    2.1018    4.3657 H         1 <0>         0.1474
     27 H7         -1.1475   -1.2780    5.4523 H         1 <0>         0.1387
     28 H8         -1.1674   -2.0194    3.1061 H         1 <0>         0.1435
@<TRIPOS>BOND
     1    1    2 1
     2    1   21 1
     3    1   22 1
     4    1   23 1
     5    2    6 1
     6    2    3 2
     7    3    4 1
     8    3   18 1
     9    4    5 2
    10    4   24 1
    11    5    6 1
    12    6    7 1
    13    7   12 ar
    14    7    8 ar
    15    8    9 ar
    16    8   25 1
    17    9   10 ar
    18    9   26 1
    19   10   11 ar
    20   10   13 1
    21   11   12 ar
    22   11   27 1
    23   12   28 1
    24   13   14 1
    25   14   15 1
    26   14   16 1
    27   14   17 1
    28   18   19 2
    29   18   20 1
@<TRIPOS>MOLECULE
ZINC44593142
   39    40     0     0     0
SMALL
USER_CHARGES

@<TRIPOS>ATOM
      1 C1          0.3294    1.3193    0.5257 C.3       1 <0>        -0.1513
      2 C2          0.1259   -0.1483    0.1439 C.3       1 <0>        -0.1193
      3 C3         -1.3509   -0.5161    0.3012 C.3       1 <0>        -0.1382
      4 C4         -1.5544   -1.9837   -0.0806 C.3       1 <0>         0.1397
      5 N1         -2.9684   -2.3359    0.0701 N.am      1 <0>        -0.6385
      6 C5         -3.8889   -2.1694   -1.0573 C.3       1 <0>         0.0729
      7 C6         -3.4224   -2.8130    1.2460 C.2       1 <0>         0.7129
      8 O1         -2.7393   -2.7137    2.2469 O.2       1 <0>        -0.5912
      9 N2         -4.6337   -3.4002    1.3124 N.am      1 <0>        -0.5979
     10 C7         -5.2727   -3.9306    0.0988 C.3       1 <0>         0.0771
     11 C8         -5.3939   -5.4554    0.2443 C.3       1 <0>        -0.0494
     12 C9         -5.8559   -5.7689    1.6302 C.2       1 <0>        -0.1449
     13 C10        -5.8486   -4.9527    2.7188 C.2       1 <0>        -0.0941
     14 C11        -6.3306   -5.4936    3.9098 C.2       1 <0>        -0.1253
     15 C12        -6.7800   -6.7691    3.9404 C.2       1 <0>        -0.1856
     16 S1         -6.5395   -7.2847    2.2470 S.3       1 <0>        -0.0070
     17 C13        -5.3316   -3.5248    2.5993 C.3       1 <0>         0.1475
     18 H1         -4.6409   -3.3136    3.4156 H         1 <0>         0.1016
     19 C14        -6.4896   -2.5616    2.6472 C.2       1 <0>         0.5013
     20 O2         -7.0650   -2.2484    1.6189 O.co2     1 <0>        -0.6806
     21 O3         -6.8511   -2.0956    3.7142 O.co2     1 <0>        -0.6856
     22 H2          1.3815    1.5813    0.4135 H         1 <0>         0.0507
     23 H3         -0.2739    1.9513   -0.1260 H         1 <0>         0.0521
     24 H4          0.0257    1.4707    1.5615 H         1 <0>         0.0548
     25 H5          0.4297   -0.2997   -0.8919 H         1 <0>         0.0583
     26 H6          0.7292   -0.7803    0.7955 H         1 <0>         0.0618
     27 H7         -1.6546   -0.3647    1.3370 H         1 <0>         0.0720
     28 H8         -1.9542    0.1159   -0.3504 H         1 <0>         0.0601
     29 H9         -1.2506   -2.1351   -1.1164 H         1 <0>         0.0695
     30 H10        -0.9511   -2.6157    0.5711 H         1 <0>         0.0766
     31 H11        -3.8342   -3.0456   -1.7035 H         1 <0>         0.0573
     32 H12        -4.9063   -2.0575   -0.6823 H         1 <0>         0.0922
     33 H13        -3.6112   -1.2814   -1.6251 H         1 <0>         0.0619
     34 H14        -6.2642   -3.4925   -0.0158 H         1 <0>         0.1022
     35 H15        -4.6622   -3.6920   -0.7721 H         1 <0>         0.1110
     36 H16        -6.1174   -5.8352   -0.4770 H         1 <0>         0.0837
     37 H17        -4.4224   -5.9177    0.0694 H         1 <0>         0.0743
     38 H18        -6.3448   -4.8943    4.8081 H         1 <0>         0.1348
     39 H19        -7.1797   -7.3299    4.7723 H         1 <0>         0.1824
@<TRIPOS>BOND
     1    1    2 1
     2    1   22 1
     3    1   23 1
     4    1   24 1
     5    2    3 1
     6    2   25 1
     7    2   26 1
     8    3    4 1
     9    3   27 1
    10    3   28 1
    11    4    5 1
    12    4   29 1
    13    4   30 1
    14    5    6 1
    15    5    7 am
    16    6   31 1
    17    6   32 1
    18    6   33 1
    19    7    8 2
    20    7    9 am
    21    9   17 1
    22    9   10 1
    23   10   11 1
    24   10   34 1
    25   10   35 1
    26   11   12 1
    27   11   36 1
    28   11   37 1
    29   12   16 1
    30   12   13 2
    31   13   14 1
    32   13   17 1
    33   14   15 2
    34   14   38 1
    35   15   16 1
    36   15   39 1
    37   17   18 1
    38   17   19 1
    39   19   20 2
    40   19   21 1
@<TRIPOS>MOLECULE
ZINC49594969
   39    40     0     0     0
SMALL
USER_CHARGES

@<TRIPOS>ATOM
      1 C1         -0.0184    1.5028    0.0103 C.3       1 <0>        -0.1185
      2 C2          0.0021   -0.0041    0.0020 C.ar      1 <0>        -0.1049
      3 C3          0.0058   -0.6889   -1.1949 C.ar      1 <0>        -0.0194
      4 C4          0.0240   -2.0726   -1.2046 C.ar      1 <0>        -0.6912
      5 C5          0.0392   -2.7805   -0.0149 C.ar      1 <0>        -0.0218
      6 C6          0.0357   -2.1108    1.1900 C.ar      1 <0>        -0.1414
      7 C7          0.0231   -0.7118    1.2084 C.ar      1 <0>         0.0278
      8 C8          0.0255    0.0109    2.4896 C.2       1 <0>        -0.1395
      9 C9          0.0459   -0.6764    3.6529 C.2       1 <0>        -0.1371
     10 C10         0.0481    0.0192    4.8862 C.2       1 <0>         0.4974
     11 O1          0.0316    1.2440    4.8986 O.co2     1 <0>        -0.6894
     12 O2          0.0666   -0.6038    5.9408 O.co2     1 <0>        -0.6928
     13 S1          0.0274   -2.9382   -2.7393 S.o2      1 <0>         2.7088
     14 O3         -0.5050   -4.2296   -2.4785 O.2       1 <0>        -0.9570
     15 O4         -0.5402   -2.0604   -3.7019 O.2       1 <0>        -0.9591
     16 N1          1.6101   -3.1578   -3.1741 N.pl3     1 <0>        -1.0088
     17 C11         2.4163   -2.2253   -3.9828 C.3       1 <0>         0.1205
     18 C12         3.8844   -2.5300   -3.5935 C.3       1 <0>        -0.1316
     19 C13         3.8459   -4.0708   -3.4149 C.3       1 <0>        -0.1242
     20 C14         2.4459   -4.3119   -2.8122 C.3       1 <0>         0.1478
     21 H1          2.0179   -5.2243   -3.2274 H         1 <0>         0.0813
     22 C15         2.5445   -4.4259   -1.2897 C.3       1 <0>        -0.1836
     23 H2          1.0042    1.8801    0.0026 H         1 <0>         0.0729
     24 H3         -0.5455    1.8639   -0.8728 H         1 <0>         0.0666
     25 H4         -0.5286    1.8543    0.9071 H         1 <0>         0.0789
     26 H5         -0.0060   -0.1439   -2.1272 H         1 <0>         0.1344
     27 H6          0.0534   -3.8603   -0.0309 H         1 <0>         0.1360
     28 H7          0.0468   -2.6644    2.1172 H         1 <0>         0.1363
     29 H8          0.0109    1.0907    2.5005 H         1 <0>         0.1374
     30 H9          0.0604   -1.7562    3.6420 H         1 <0>         0.1035
     31 H10         2.2592   -2.4111   -5.0453 H         1 <0>         0.0719
     32 H11         2.1647   -1.1939   -3.7360 H         1 <0>         0.0753
     33 H12         4.5678   -2.2465   -4.3940 H         1 <0>         0.0822
     34 H13         4.1519   -2.0350   -2.6599 H         1 <0>         0.0774
     35 H14         3.9475   -4.5732   -4.3768 H         1 <0>         0.0763
     36 H15         4.6224   -4.3984   -2.7236 H         1 <0>         0.0826
     37 H16         1.5474   -4.5583   -0.8699 H         1 <0>         0.0629
     38 H17         3.1653   -5.2832   -1.0290 H         1 <0>         0.0749
     39 H18         2.9913   -3.5176   -0.8855 H         1 <0>         0.0674
@<TRIPOS>BOND
     1    1    2 1
     2    1   23 1
     3    1   24 1
     4    1   25 1
     5    2    7 ar
     6    2    3 ar
     7    3    4 ar
     8    3   26 1
     9    4    5 ar
    10    4   13 1
    11    5    6 ar
    12    5   27 1
    13    6    7 ar
    14    6   28 1
    15    7    8 1
    16    8    9 2
    17    8   29 1
    18    9   10 1
    19    9   30 1
    20   10   11 2
    21   10   12 1
    22   13   14 2
    23   13   15 2
    24   13   16 1
    25   16   20 1
    26   16   17 1
    27   17   18 1
    28   17   31 1
    29   17   32 1
    30   18   19 1
    31   18   33 1
    32   18   34 1
    33   19   20 1
    34   19   35 1
    35   19   36 1
    36   20   21 1
    37   20   22 1
    38   22   37 1
    39   22   38 1
    40   22   39 1
@<TRIPOS>MOLECULE
ZINC62875123
   36    38     0     0     0
SMALL
USER_CHARGES

@<TRIPOS>ATOM
      1 C1         -0.1682    1.1372    0.4771 C.3       1 <0>        -0.1565
      2 C2          0.0318   -0.3742    0.3482 C.3       1 <0>        -0.0896
      3 C3          0.6391   -0.6935   -1.0193 C.3       1 <0>        -0.1531
      4 C4          1.9917    0.0097   -1.1543 C.3       1 <0>        -0.0837
      5 C5          2.5850   -0.2823   -2.5345 C.3       1 <0>        -0.1358
      6 C6          2.8075   -1.7909   -2.6814 C.3       1 <0>         0.1559
      7 N1          1.5410   -2.4844   -2.4099 N.pl3     1 <0>        -0.6446
      8 C7          0.8396   -2.2067   -1.1491 C.3       1 <0>         0.1853
      9 C8          1.0186   -3.3814   -3.3242 C.ar      1 <0>         0.5068
     10 C9          1.2651   -4.7754   -3.1866 C.ar      1 <0>        -0.2115
     11 C10         2.0286   -5.4886   -2.1777 C.2       1 <0>        -0.0982
     12 C11         2.1244   -6.8244   -2.2518 C.2       1 <0>        -0.1742
     13 S1          1.1793   -7.2295   -3.7083 S.3       1 <0>         0.0627
     14 C12         0.6812   -5.5939   -4.1780 C.ar      1 <0>         0.1251
     15 N2         -0.0397   -5.0812   -5.1558 N.ar      1 <0>        -0.5053
     16 C13        -0.2331   -3.7789   -5.2301 C.ar      1 <0>         0.3263
     17 N3          0.2789   -2.9537   -4.3343 N.ar      1 <0>        -0.4747
     18 C14        -0.2884   -0.2140   -2.1060 C.2       1 <0>         0.5063
     19 O1         -0.5792    0.9676   -2.1819 O.co2     1 <0>        -0.7026
     20 O2         -0.7480   -1.0077   -2.9093 O.co2     1 <0>        -0.6627
     21 H1          0.7938    1.6405    0.3803 H         1 <0>         0.0437
     22 H2         -0.8399    1.4831   -0.3085 H         1 <0>         0.0973
     23 H3         -0.6009    1.3647    1.4513 H         1 <0>         0.0260
     24 H4          0.7035   -0.7201    1.1338 H         1 <0>         0.0390
     25 H5         -0.9302   -0.8775    0.4449 H         1 <0>         0.0468
     26 H6          1.8553    1.0849   -1.0378 H         1 <0>         0.0654
     27 H7          2.6696   -0.3558   -0.3829 H         1 <0>         0.0402
     28 H8          1.8962    0.0607   -3.3065 H         1 <0>         0.0753
     29 H9          3.5372    0.2377   -2.6386 H         1 <0>         0.0551
     30 H10         3.1364   -2.0146   -3.6962 H         1 <0>         0.0566
     31 H11         3.5642   -2.1197   -1.9690 H         1 <0>         0.0493
     32 H12         1.4358   -2.5694   -0.3117 H         1 <0>         0.0357
     33 H13        -0.1299   -2.7047   -1.1529 H         1 <0>         0.0607
     34 H14         2.5138   -4.9497   -1.3773 H         1 <0>         0.1398
     35 H15         2.6494   -7.4948   -1.5875 H         1 <0>         0.1917
     36 H16        -0.8266   -3.3784   -6.0387 H         1 <0>         0.2017
@<TRIPOS>BOND
     1    1    2 1
     2    1   21 1
     3    1   22 1
     4    1   23 1
     5    2    3 1
     6    2   24 1
     7    2   25 1
     8    3    8 1
     9    3    4 1
    10    3   18 1
    11    4    5 1
    12    4   26 1
    13    4   27 1
    14    5    6 1
    15    5   28 1
    16    5   29 1
    17    6    7 1
    18    6   30 1
    19    6   31 1
    20    7    8 1
    21    7    9 1
    22    8   32 1
    23    8   33 1
    24    9   17 ar
    25    9   10 ar
    26   10   14 ar
    27   10   11 1
    28   11   12 2
    29   11   34 1
    30   12   13 1
    31   12   35 1
    32   13   14 1
    33   14   15 ar
    34   15   16 ar
    35   16   17 ar
    36   16   36 1
    37   18   19 2
    38   18   20 1
@<TRIPOS>MOLECULE
ZINC03391696
   40    43     0     0     0
SMALL
USER_CHARGES
1-BLAHylpiperidine-3-carboxylic acid
@<TRIPOS>ATOM
      1 C1          2.7164    5.8703   -0.8079 C.ar      1 <0>         0.3249
      2 N1          1.4206    5.6394   -0.8799 N.ar      1 <0>        -0.5616
      3 C2          0.8757    4.4268   -0.8049 C.ar      1 <0>         0.4198
      4 C3          1.7883    3.3455   -0.6372 C.ar      1 <0>        -0.1801
      5 C4          1.4645    1.9328   -0.5273 C.2       1 <0>        -0.0610
      6 C5          2.5044    1.0824   -0.3714 C.2       1 <0>        -0.1566
      7 S1          3.9521    2.1102   -0.3634 S.3       1 <0>         0.0926
      8 C6          3.1655    3.6753   -0.5686 C.ar      1 <0>         0.1122
      9 N2          3.6197    4.9099   -0.6529 N.ar      1 <0>        -0.4757
     10 C7          2.4447   -0.4079   -0.2349 C.3       1 <0>        -0.0365
     11 C8          0.9959   -0.8113    0.0731 C.3       1 <0>        -0.1141
     12 C9          0.0671   -0.0879   -0.9066 C.3       1 <0>        -0.1232
     13 C10         0.0330    1.4055   -0.5818 C.3       1 <0>        -0.0611
     14 N3         -0.4910    4.2292   -0.8845 N.pl3     1 <0>        -0.4803
     15 C11        -1.1180    4.3497    0.4379 C.3       1 <0>         0.0662
     16 C12        -2.6004    3.9832    0.3364 C.3       1 <0>        -0.1139
     17 C13        -3.2858    4.9207   -0.6614 C.3       1 <0>        -0.0995
     18 C14        -2.5832    4.8118   -2.0175 C.3       1 <0>        -0.1230
     19 H1         -2.6804    3.7949   -2.3978 H         1 <0>         0.0768
     20 C15        -1.1013    5.1544   -1.8478 C.3       1 <0>         0.0851
     21 C16        -3.2140    5.7750   -2.9898 C.2       1 <0>         0.4680
     22 O1         -2.5472    6.6465   -3.4956 O.co2     1 <0>        -0.6382
     23 H2          3.0603    6.8916   -0.8794 H         1 <0>         0.2010
     24 H3          3.0949   -0.7274    0.5795 H         1 <0>         0.0811
     25 H4          2.7655   -0.8769   -1.1651 H         1 <0>         0.0843
     26 H5          0.7455   -0.5241    1.0944 H         1 <0>         0.0676
     27 H6          0.8813   -1.8891   -0.0422 H         1 <0>         0.0726
     28 H7         -0.9387   -0.4998   -0.8236 H         1 <0>         0.0715
     29 H8          0.4337   -0.2293   -1.9233 H         1 <0>         0.0651
     30 H9         -0.5217    1.9349   -1.3565 H         1 <0>         0.1010
     31 H10        -0.4492    1.5582    0.3837 H         1 <0>         0.0770
     32 H11        -0.6240    3.6748    1.1369 H         1 <0>         0.0718
     33 H12        -1.0211    5.3754    0.7937 H         1 <0>         0.0474
     34 H13        -3.0689    4.0878    1.3150 H         1 <0>         0.0694
     35 H14        -2.6979    2.9530   -0.0061 H         1 <0>         0.0724
     36 H15        -3.2223    5.9470   -0.2997 H         1 <0>         0.0547
     37 H16        -4.3323    4.6356   -0.7694 H         1 <0>         0.0745
     38 H17        -1.0044    6.1763   -1.4813 H         1 <0>         0.0608
     39 H18        -0.5954    5.0637   -2.8090 H         1 <0>         0.0741
     40 O2         -4.5168    5.6648   -3.2940 O.co2     1 <0>        -0.7673
@<TRIPOS>BOND
     1    1    9 ar
     2    1    2 ar
     3    1   23 1
     4    2    3 ar
     5    3    4 ar
     6    3   14 1
     7    4    8 ar
     8    4    5 1
     9    5   13 1
    10    5    6 2
    11    6    7 1
    12    6   10 1
    13    7    8 1
    14    8    9 ar
    15   10   11 1
    16   10   24 1
    17   10   25 1
    18   11   12 1
    19   11   26 1
    20   11   27 1
    21   12   13 1
    22   12   28 1
    23   12   29 1
    24   13   30 1
    25   13   31 1
    26   14   20 1
    27   14   15 1
    28   15   16 1
    29   15   32 1
    30   15   33 1
    31   16   17 1
    32   16   34 1
    33   16   35 1
    34   17   18 1
    35   17   36 1
    36   17   37 1
    37   18   19 1
    38   18   20 1
    39   18   21 1
    40   20   38 1
    41   20   39 1
    42   21   22 2
    43   21   40 1
@<TRIPOS>MOLECULE
ZINC00457641
   30    32     0     0     0
SMALL
USER_CHARGES
3-(4-chlorophenyl)-4-(3-pyridylmethyleneamino)-1H-1,2,4-triazole-5-thione
@<TRIPOS>ATOM
      1 C1         -3.2543    0.0548   -3.6393 C.ar      1 <0>        -0.1706
      2 C2         -3.5375    0.9239   -2.6006 C.ar      1 <0>        -0.0625
      3 C3         -3.6156    2.2936   -2.8840 C.ar      1 <0>        -0.1734
      4 C4         -3.3947    2.7246   -4.1944 C.ar      1 <0>         0.1357
      5 N1         -3.1229    1.8575   -5.1471 N.ar      1 <0>        -0.4926
      6 C5         -3.0481    0.5617   -4.9097 C.ar      1 <0>         0.1141
      7 C6         -3.9197    3.2643   -1.8163 C.2       1 <0>         0.1736
      8 N2         -3.9608    2.8759   -0.5785 N.2       1 <0>        -0.2301
      9 N3         -3.5534    1.5796   -0.2372 N.pl3     1 <0>        -0.3772
     10 C7         -2.2490    1.1239   -0.2003 C.2       1 <0>         0.1993
     11 N4         -2.2582   -0.1283    0.1639 N.2       1 <0>        -0.2929
     12 N5         -3.5910   -0.5114    0.3670 N.2       1 <0>        -0.3670
     13 C8         -4.3663    0.5617    0.1089 C.2       1 <0>         0.3948
     14 S1         -6.0743    0.6218    0.2093 S.3       1 <0>        -0.7414
     15 C9         -1.0448    1.9238   -0.5148 C.ar      1 <0>         0.0099
     16 C10         0.1775    1.2900   -0.7407 C.ar      1 <0>        -0.0739
     17 C11         1.2957    2.0405   -1.0396 C.ar      1 <0>        -0.1077
     18 C12         1.2078    3.4206   -1.1104 C.ar      1 <0>        -0.0340
     19 C13        -0.0014    4.0553   -0.8819 C.ar      1 <0>        -0.1046
     20 C14        -1.1262    3.3150   -0.5822 C.ar      1 <0>        -0.1054
     21 Cl1         2.6190    4.3586   -1.4876 Cl        1 <0>        -0.0756
     22 H1         -3.1901   -1.0082   -3.4591 H         1 <0>         0.1360
     23 H2         -3.6981    0.5556   -1.5982 H         1 <0>         0.1701
     24 H3         -3.4478    3.7777   -4.4279 H         1 <0>         0.1618
     25 H4         -2.8224   -0.1145   -5.7210 H         1 <0>         0.1567
     26 H5         -4.1117    4.3175   -2.0689 H         1 <0>         0.1986
     27 H6          0.2470    0.2136   -0.6861 H         1 <0>         0.1436
     28 H7          2.2413    1.5507   -1.2191 H         1 <0>         0.1373
     29 H8         -0.0642    5.1320   -0.9388 H         1 <0>         0.1365
     30 H9         -2.0690    3.8111   -0.4049 H         1 <0>         0.1408
@<TRIPOS>BOND
     1    1    6 ar
     2    1    2 ar
     3    1   22 1
     4    2    3 ar
     5    2   23 1
     6    3    4 ar
     7    3    7 1
     8    4    5 ar
     9    4   24 1
    10    5    6 ar
    11    6   25 1
    12    7    8 2
    13    7   26 1
    14    8    9 1
    15    9   13 1
    16    9   10 1
    17   10   11 2
    18   10   15 1
    19   11   12 1
    20   12   13 2
    21   13   14 1
    22   15   20 ar
    23   15   16 ar
    24   16   17 ar
    25   16   27 1
    26   17   18 ar
    27   17   28 1
    28   18   19 ar
    29   18   21 1
    30   19   20 ar
    31   19   29 1
    32   20   30 1
@<TRIPOS>MOLECULE
ZINC00223863
   30    32     0     0     0
SMALL
USER_CHARGES

@<TRIPOS>ATOM
      1 C1         -0.0184    1.5028    0.0103 C.3       1 <0>        -0.1042
      2 C2          0.0021   -0.0041    0.0020 C.ar      1 <0>        -0.0551
      3 C3          0.0057   -0.6882   -1.2000 C.ar      1 <0>        -0.2269
      4 C4          0.0240   -2.0707   -1.2121 C.ar      1 <0>        -0.0652
      5 C5          0.0391   -2.7732   -0.0230 C.ar      1 <0>        -0.2695
      6 C6          0.0360   -2.0893    1.1859 C.ar      1 <0>         0.2827
      7 C7          0.0228   -0.7000    1.1944 C.ar      1 <0>        -0.1816
      8 N1          0.0513   -2.7965    2.3902 N.2       1 <0>        -1.0812
      9 S1          0.0732   -4.4524    2.3779 S.o2      1 <0>         2.6020
     10 O1         -1.1695   -4.8709    1.8301 O.2       1 <0>        -1.0301
     11 O2          1.3210   -4.8378    1.8179 O.2       1 <0>        -1.0131
     12 C8          0.0885   -4.9857    4.0572 C.ar      1 <0>        -0.5661
     13 C9         -0.9607   -5.6816    4.5545 C.ar      1 <0>         0.0048
     14 C10        -0.9826   -6.1200    5.8786 C.ar      1 <0>        -0.1103
     15 C11         0.0442   -5.8683    6.7239 C.ar      1 <0>        -0.0372
     16 C12         1.1794   -5.1429    6.2712 C.ar      1 <0>         0.0556
     17 C13         1.2048   -4.6896    4.8852 C.ar      1 <0>         0.1314
     18 N2          2.3183   -4.0260    4.5710 N.2       1 <0>        -0.4607
     19 S2          3.2072   -4.0097    5.9118 S.3       1 <0>         0.6135
     20 N3          2.2739   -4.8042    6.9539 N.2       1 <0>        -0.5094
     21 H1          1.0042    1.8801    0.0026 H         1 <0>         0.0594
     22 H2         -0.5455    1.8639   -0.8728 H         1 <0>         0.0553
     23 H3         -0.5286    1.8543    0.9071 H         1 <0>         0.0576
     24 H4         -0.0061   -0.1414   -2.1312 H         1 <0>         0.0993
     25 H5          0.0260   -2.6019   -2.1525 H         1 <0>         0.1003
     26 H6          0.0530   -3.8531   -0.0331 H         1 <0>         0.0942
     27 H7          0.0245   -0.1651    2.1327 H         1 <0>         0.1089
     28 H8         -1.8001   -5.9020    3.9117 H         1 <0>         0.1559
     29 H9         -1.8384   -6.6725    6.2375 H         1 <0>         0.1458
     30 H10         0.0005   -6.2190    7.7445 H         1 <0>         0.1441
@<TRIPOS>BOND
     1    1    2 1
     2    1   21 1
     3    1   22 1
     4    1   23 1
     5    2    7 ar
     6    2    3 ar
     7    3    4 ar
     8    3   24 1
     9    4    5 ar
    10    4   25 1
    11    5    6 ar
    12    5   26 1
    13    6    7 ar
    14    6    8 1
    15    7   27 1
    16    8    9 1
    17    9   10 2
    18    9   11 2
    19    9   12 1
    20   12   17 ar
    21   12   13 ar
    22   13   14 ar
    23   13   28 1
    24   14   15 ar
    25   14   29 1
    26   15   16 ar
    27   15   30 1
    28   16   20 2
    29   16   17 ar
    30   17   18 2
    31   18   19 1
    32   19   20 1
@<TRIPOS>MOLECULE
ZINC49452802
   36    38     0     0     0
SMALL
USER_CHARGES

@<TRIPOS>ATOM
      1 C1         -2.3305   -2.8902    0.3133 C.3       1 <0>        -0.1099
      2 C2         -1.0818   -2.0885    0.0504 C.2       1 <0>         0.2242
      3 C3         -1.1723   -0.7087   -0.1649 C.2       1 <0>        -0.2233
      4 C4         -0.0383    0.0019   -0.4002 C.2       1 <0>         0.2176
      5 N1          1.1547   -0.6475   -0.4203 N.pl3     1 <0>        -0.3305
      6 C5          1.2089   -1.9960   -0.2063 C.2       1 <0>         0.4311
      7 N2          0.0879   -2.6873    0.0297 N.2       1 <0>        -0.4682
      8 N3          2.4851   -2.3585   -0.2818 N.2       1 <0>        -0.5271
      9 C6          3.2406   -1.2921   -0.5353 C.2       1 <0>         0.4313
     10 N4          2.4739   -0.2240   -0.6284 N.2       1 <0>        -0.3684
     11 S1          4.9931   -1.3062   -0.7173 S.3       1 <0>        -0.7754
     12 C7         -0.1032    1.4889   -0.6362 C.3       1 <0>        -0.1234
     13 C8         -2.5119   -0.0190   -0.1364 C.3       1 <0>        -0.0187
     14 C9         -2.8504    0.3627    1.2816 C.ar      1 <0>        -0.0341
     15 C10        -3.6621   -0.4582    2.0430 C.ar      1 <0>        -0.1554
     16 C11        -3.9745   -0.1109    3.3441 C.ar      1 <0>        -0.0780
     17 C12        -3.4766    1.0580    3.8869 C.ar      1 <0>        -0.2139
     18 C13        -2.6622    1.8832    3.1252 C.ar      1 <0>         0.1289
     19 C14        -2.3452    1.5293    1.8215 C.ar      1 <0>        -0.1498
     20 O1         -2.1711    3.0334    3.6568 O.3       1 <0>        -0.3175
     21 C15        -2.5341    3.3311    5.0065 C.3       1 <0>         0.0281
     22 H1         -2.0768   -3.9486    0.3733 H         1 <0>         0.0832
     23 H2         -2.7767   -2.5695    1.2546 H         1 <0>         0.0888
     24 H3         -3.0411   -2.7324   -0.4981 H         1 <0>         0.0858
     25 H4          0.0490    2.0134    0.3071 H         1 <0>         0.0910
     26 H5          0.6744    1.7789   -1.3428 H         1 <0>         0.0889
     27 H6         -1.0800    1.7499   -1.0435 H         1 <0>         0.0918
     28 H7         -2.4720    0.8780   -0.7545 H         1 <0>         0.0906
     29 H8         -3.2760   -0.6932   -0.5235 H         1 <0>         0.0931
     30 H9         -4.0529   -1.3720    1.6203 H         1 <0>         0.1295
     31 H10        -4.6086   -0.7537    3.9367 H         1 <0>         0.1245
     32 H11        -3.7215    1.3293    4.9031 H         1 <0>         0.1251
     33 H12        -1.7075    2.1676    1.2281 H         1 <0>         0.1317
     34 H13        -2.0767    4.2739    5.3063 H         1 <0>         0.0992
     35 H14        -3.6184    3.4134    5.0814 H         1 <0>         0.0544
     36 H15        -2.1842    2.5331    5.6613 H         1 <0>         0.0549
@<TRIPOS>BOND
     1    1    2 1
     2    1   22 1
     3    1   23 1
     4    1   24 1
     5    2    7 2
     6    2    3 1
     7    3    4 2
     8    3   13 1
     9    4    5 1
    10    4   12 1
    11    5   10 1
    12    5    6 1
    13    6    7 1
    14    6    8 2
    15    8    9 1
    16    9   10 2
    17    9   11 1
    18   12   25 1
    19   12   26 1
    20   12   27 1
    21   13   14 1
    22   13   28 1
    23   13   29 1
    24   14   19 ar
    25   14   15 ar
    26   15   16 ar
    27   15   30 1
    28   16   17 ar
    29   16   31 1
    30   17   18 ar
    31   17   32 1
    32   18   19 ar
    33   18   20 1
    34   19   33 1
    35   20   21 1
    36   21   34 1
    37   21   35 1
    38   21   36 1
@<TRIPOS>MOLECULE
ZINC09344491
   39    42     0     0     0
SMALL
USER_CHARGES

@<TRIPOS>ATOM
      1 C1         -0.0167    1.3781    0.0096 C.ar      1 <0>        -0.1700
      2 C2          1.1736    2.0822    0.0020 C.ar      1 <0>        -0.0984
      3 C3          2.3771    1.4105   -0.0131 C.ar      1 <0>        -0.1355
      4 C4          2.4043    0.0144   -0.0213 C.ar      1 <0>         0.1962
      5 C5          1.2062   -0.6818   -0.0136 C.ar      1 <0>        -0.1675
      6 C6          0.0021   -0.0041    0.0020 C.ar      1 <0>        -0.0811
      7 C7          1.5103   -2.1630   -0.0245 C.3       1 <0>        -0.0835
      8 C8          3.0455   -2.2427   -0.0396 C.3       1 <0>         0.1287
      9 N1          3.5025   -0.8504   -0.0365 N.pl3     1 <0>        -0.5156
     10 C9          4.8082   -0.4560   -0.0472 C.2       1 <0>         0.6164
     11 N2          5.1189    0.8765   -0.0373 N.2       1 <0>        -0.7261
     12 C10         6.4142    1.2812   -0.5934 C.3       1 <0>         0.1611
     13 C11         6.3976    1.1393   -2.1242 C.3       1 <0>        -0.1202
     14 C12         6.0659    2.5660   -2.6312 C.3       1 <0>        -0.1112
     15 C13         6.8387    3.4715   -1.6396 C.3       1 <0>        -0.1196
     16 C14         6.6905    2.7563   -0.2791 C.3       1 <0>        -0.0977
     17 C15         7.5072    0.3954    0.0053 C.3       1 <0>        -0.0913
     18 H1          8.4284    0.5162   -0.5648 H         1 <0>         0.1111
     19 C16         7.0577   -1.0430   -0.0594 C.2       1 <0>         0.5391
     20 N3          5.7714   -1.3624   -0.0618 N.2       1 <0>        -0.7456
     21 O1          7.8913   -1.9264   -0.1061 O.2       1 <0>        -0.5714
     22 C17         7.7407    0.7794    1.4071 C.1       1 <0>         0.2534
     23 N4          7.9209    1.0757    2.4888 N.1       1 <0>        -0.4652
     24 H2         -0.9583    1.9066    0.0259 H         1 <0>         0.1133
     25 H3          1.1600    3.1621    0.0076 H         1 <0>         0.1161
     26 H4          3.3031    1.9664   -0.0189 H         1 <0>         0.1594
     27 H5         -0.9265   -0.5555    0.0079 H         1 <0>         0.1129
     28 H6          1.1136   -2.6392    0.8722 H         1 <0>         0.0799
     29 H7          1.0965   -2.6295   -0.9185 H         1 <0>         0.0813
     30 H8          3.4061   -2.7610    0.8489 H         1 <0>         0.0729
     31 H9          3.3889   -2.7513   -0.9404 H         1 <0>         0.0762
     32 H10         7.3745    0.8218   -2.4890 H         1 <0>         0.0565
     33 H11         5.6258    0.4347   -2.4341 H         1 <0>         0.0621
     34 H12         6.4302    2.7086   -3.6486 H         1 <0>         0.0548
     35 H13         4.9943    2.7568   -2.5735 H         1 <0>         0.0674
     36 H14         7.8891    3.5381   -1.9231 H         1 <0>         0.0577
     37 H15         6.3896    4.4639   -1.5998 H         1 <0>         0.0586
     38 H16         5.8566    3.1825    0.2787 H         1 <0>         0.0744
     39 H17         7.6122    2.8501    0.2952 H         1 <0>         0.0503
@<TRIPOS>BOND
     1    1    6 ar
     2    1    2 ar
     3    1   24 1
     4    2    3 ar
     5    2   25 1
     6    3    4 ar
     7    3   26 1
     8    4    9 1
     9    4    5 ar
    10    5    6 ar
    11    5    7 1
    12    6   27 1
    13    7    8 1
    14    7   28 1
    15    7   29 1
    16    8    9 1
    17    8   30 1
    18    8   31 1
    19    9   10 1
    20   10   20 2
    21   10   11 1
    22   11   12 1
    23   12   16 1
    24   12   13 1
    25   12   17 1
    26   13   14 1
    27   13   32 1
    28   13   33 1
    29   14   15 1
    30   14   34 1
    31   14   35 1
    32   15   16 1
    33   15   36 1
    34   15   37 1
    35   16   38 1
    36   16   39 1
    37   17   18 1
    38   17   19 1
    39   17   22 1
    40   19   20 1
    41   19   21 2
    42   22   23 3
@<TRIPOS>MOLECULE
ZINC08497141
   25    25     0     0     0
SMALL
USER_CHARGES
2-(2-bromo-4-formyl-6-nitro-phenoxy)propanoic acid
@<TRIPOS>ATOM
      1 C1         -5.7114    2.4771   -1.8570 C.3       1 <0>        -0.1615
      2 C2         -4.9400    3.7003   -1.3575 C.3       1 <0>         0.0618
      3 H1         -3.9426    3.7053   -1.7972 H         1 <0>         0.0566
      4 C3         -5.6723    4.9546   -1.7593 C.2       1 <0>         0.4825
      5 O1         -6.0623    5.7239   -0.9131 O.co2     1 <0>        -0.5954
      6 O2         -4.8325    3.6469    0.0664 O.3       1 <0>        -0.2845
      7 C4         -3.8044    2.9257    0.5800 C.ar      1 <0>         0.2408
      8 C5         -2.5485    3.5076    0.7137 C.ar      1 <0>        -0.0873
      9 C6         -1.5039    2.7827    1.2396 C.ar      1 <0>         0.0273
     10 C7         -1.7040    1.4527    1.6300 C.ar      1 <0>        -0.2117
     11 C8         -2.9703    0.8708    1.4935 C.ar      1 <0>         0.0176
     12 C9         -4.0104    1.6066    0.9715 C.ar      1 <0>        -0.1442
     13 Br1        -5.7213    0.8228    0.7856 Br        1 <0>         0.0048
     14 C10        -0.5908    0.6727    2.1862 C.2       1 <0>         0.3923
     15 O3          0.5065    1.1772    2.2988 O.2       1 <0>        -0.4497
     16 N1         -2.3365    4.9115    0.2952 N.pl3     1 <0>         0.0171
     17 O4         -1.2175    5.3919    0.3196 O.2       1 <0>        -0.1827
     18 O5         -3.2810    5.5863   -0.0737 O.3       1 <0>        -0.0782
     19 H2         -6.6563    2.3990   -1.3193 H         1 <0>         0.0689
     20 H3         -5.9081    2.5824   -2.9239 H         1 <0>         0.0833
     21 H4         -5.1194    1.5785   -1.6836 H         1 <0>         0.0445
     22 H5         -0.5302    3.2372    1.3471 H         1 <0>         0.1687
     23 H6         -3.1308   -0.1530    1.7976 H         1 <0>         0.1625
     24 H7         -0.7482   -0.3514    2.4907 H         1 <0>         0.1203
     25 O6         -5.8915    5.2172   -3.0573 O.co2     1 <0>        -0.7536
@<TRIPOS>BOND
     1    1    2 1
     2    1   19 1
     3    1   20 1
     4    1   21 1
     5    2    3 1
     6    2    4 1
     7    2    6 1
     8    4    5 2
     9    4   25 1
    10    6    7 1
    11    7   12 ar
    12    7    8 ar
    13    8    9 ar
    14    8   16 1
    15    9   10 ar
    16    9   22 1
    17   10   11 ar
    18   10   14 1
    19   11   12 ar
    20   11   23 1
    21   12   13 1
    22   14   15 2
    23   14   24 1
    24   16   17 2
    25   16   18 1
@<TRIPOS>MOLECULE
ZINC35658887
   41    42     0     0     0
SMALL
USER_CHARGES

@<TRIPOS>ATOM
      1 C1          0.1142    1.5140   -0.0959 C.3       1 <0>        -0.1858
      2 C2          0.0729   -0.0148   -0.0498 C.3       1 <0>         0.1536
      3 H1          0.5288   -0.4201   -0.9531 H         1 <0>         0.0741
      4 C3         -1.3813   -0.4865    0.0477 C.3       1 <0>        -0.1263
      5 C4         -1.4094   -2.0053    0.2335 C.3       1 <0>        -0.1198
      6 C5         -0.6935   -2.3751    1.5346 C.3       1 <0>        -0.1252
      7 C6          0.7686   -1.9248    1.4540 C.3       1 <0>         0.1429
      8 H2          1.2570   -2.0959    2.4133 H         1 <0>         0.1045
      9 N1          0.8079   -0.4919    1.1296 N.pl3     1 <0>        -0.9907
     10 S1          1.6602    0.5653    2.0773 S.o2      1 <0>         2.7251
     11 O1          0.9532    1.7975    2.0482 O.2       1 <0>        -0.9626
     12 O2          1.9500   -0.1183    3.2889 O.2       1 <0>        -0.9675
     13 C7          3.2046    0.8518    1.2790 C.2       1 <0>        -0.8271
     14 C8          4.3769    0.1119    1.4650 C.2       1 <0>         0.1193
     15 N2          5.3087    0.6237    0.7023 N.2       1 <0>        -0.2832
     16 N3          4.7579    1.7072    0.0058 N.pl3     1 <0>        -0.3369
     17 C9          3.4646    1.8229    0.3732 C.2       1 <0>         0.1689
     18 C10         5.4603    2.5603   -0.9559 C.3       1 <0>         0.1398
     19 C11         6.7149    3.1415   -0.3009 C.3       1 <0>        -0.1944
     20 C12         7.4375    4.0191   -1.2902 C.2       1 <0>         0.4983
     21 O3          6.9904    4.1661   -2.4150 O.co2     1 <0>        -0.6974
     22 O4          8.4691    4.5822   -0.9659 O.co2     1 <0>        -0.6921
     23 C13         1.4901   -2.7177    0.3624 C.3       1 <0>        -0.1655
     24 H3          1.1470    1.8523   -0.0115 H         1 <0>         0.0587
     25 H4         -0.3055    1.8604   -1.0403 H         1 <0>         0.0695
     26 H5         -0.4693    1.9184    0.7311 H         1 <0>         0.1000
     27 H6         -1.8631   -0.0068    0.8996 H         1 <0>         0.0697
     28 H7         -1.9116   -0.2220   -0.8672 H         1 <0>         0.0729
     29 H8         -2.4436   -2.3466    0.2784 H         1 <0>         0.0628
     30 H9         -0.9056   -2.4833   -0.6067 H         1 <0>         0.0662
     31 H10        -1.1817   -1.8776    2.3725 H         1 <0>         0.0675
     32 H11        -0.7342   -3.4548    1.6780 H         1 <0>         0.0740
     33 H12         4.4929   -0.7356    2.1243 H         1 <0>         0.1910
     34 H13         2.7633    2.5602    0.0112 H         1 <0>         0.1883
     35 H14         5.7455    1.9688   -1.8259 H         1 <0>         0.0958
     36 H15         4.8040    3.3726   -1.2682 H         1 <0>         0.1036
     37 H16         6.4298    3.7331    0.5691 H         1 <0>         0.0643
     38 H17         7.3713    2.3292    0.0114 H         1 <0>         0.0754
     39 H18         1.0033   -2.5413   -0.5968 H         1 <0>         0.0622
     40 H19         2.5300   -2.3958    0.3067 H         1 <0>         0.0603
     41 H20         1.4510   -3.7809    0.5996 H         1 <0>         0.0658
@<TRIPOS>BOND
     1    1    2 1
     2    1   24 1
     3    1   25 1
     4    1   26 1
     5    2    3 1
     6    2    9 1
     7    2    4 1
     8    4    5 1
     9    4   27 1
    10    4   28 1
    11    5    6 1
    12    5   29 1
    13    5   30 1
    14    6    7 1
    15    6   31 1
    16    6   32 1
    17    7    8 1
    18    7    9 1
    19    7   23 1
    20    9   10 1
    21   10   11 2
    22   10   12 2
    23   10   13 1
    24   13   17 2
    25   13   14 1
    26   14   15 2
    27   14   33 1
    28   15   16 1
    29   16   17 1
    30   16   18 1
    31   17   34 1
    32   18   19 1
    33   18   35 1
    34   18   36 1
    35   19   20 1
    36   19   37 1
    37   19   38 1
    38   20   21 2
    39   20   22 1
    40   23   39 1
    41   23   40 1
    42   23   41 1
@<TRIPOS>MOLECULE
ZINC41268144
   44    45     0     0     0
SMALL
USER_CHARGES

@<TRIPOS>ATOM
      1 C1         -0.5067    1.7777    0.2073 C.3       1 <0>        -0.1423
      2 C2         -0.4112    0.2509    0.1828 C.3       1 <0>        -0.1175
      3 C3         -1.8190   -0.3479    0.1631 C.3       1 <0>        -0.5969
      4 S1         -1.7058   -2.1581    0.1341 S.o2      1 <0>         2.5280
      5 O1         -1.1623   -2.5947   -1.1041 O.2       1 <0>        -1.0219
      6 O2         -1.1795   -2.6354    1.3647 O.2       1 <0>        -1.0228
      7 N1         -3.2764   -2.6825    0.1145 N.2       1 <0>        -1.0886
      8 C4         -3.5556   -4.0509    0.0900 C.ar      1 <0>         0.3295
      9 C5         -2.5169   -4.9733    0.0879 C.ar      1 <0>        -0.2717
     10 C6         -2.7965   -6.3256    0.0641 C.ar      1 <0>         0.0280
     11 C7         -4.1086   -6.7617    0.0420 C.ar      1 <0>        -0.7733
     12 C8         -5.1450   -5.8461    0.0441 C.ar      1 <0>         0.0066
     13 C9         -4.8725   -4.4925    0.0736 C.ar      1 <0>        -0.1973
     14 S2         -4.4607   -8.4878    0.0106 S.o2      1 <0>         2.6959
     15 O3         -5.7557   -8.6279   -0.5575 O.2       1 <0>        -0.9697
     16 O4         -3.3154   -9.1261   -0.5372 O.2       1 <0>        -0.9772
     17 N2         -4.5769   -8.9926    1.5835 N.pl3     1 <0>        -1.0027
     18 C10        -3.4317   -9.6161    2.2655 C.3       1 <0>         0.0814
     19 C11        -3.9054  -10.9250    2.9075 C.3       1 <0>         0.0520
     20 O5         -5.0583  -10.6646    3.7117 O.3       1 <0>        -0.3808
     21 C12        -6.1852  -10.1776    2.9790 C.3       1 <0>         0.0556
     22 C13        -5.8265   -8.8253    2.3424 C.3       1 <0>         0.1201
     23 H1         -5.6855   -8.0757    3.1211 H         1 <0>         0.0834
     24 C14        -6.9473   -8.3846    1.3989 C.3       1 <0>        -0.1851
     25 H2          0.4962    2.2043    0.2213 H         1 <0>         0.0561
     26 H3         -1.0360    2.1229   -0.6808 H         1 <0>         0.0562
     27 H4         -1.0484    2.0936    1.0989 H         1 <0>         0.0561
     28 H5          0.1305   -0.0650   -0.7087 H         1 <0>         0.0724
     29 H6          0.1181   -0.0943    1.0709 H         1 <0>         0.0723
     30 H7         -2.3607   -0.0320    1.0547 H         1 <0>         0.1212
     31 H8         -2.3483   -0.0027   -0.7250 H         1 <0>         0.1214
     32 H9         -1.4920   -4.6334    0.1044 H         1 <0>         0.1091
     33 H10        -1.9895   -7.0432    0.0625 H         1 <0>         0.1168
     34 H11        -6.1686   -6.1900    0.0268 H         1 <0>         0.1242
     35 H12        -5.6824   -3.7780    0.0798 H         1 <0>         0.1204
     36 H13        -2.6436   -9.8260    1.5423 H         1 <0>         0.1043
     37 H14        -3.0537   -8.9447    3.0366 H         1 <0>         0.0774
     38 H15        -4.1603  -11.6419    2.1270 H         1 <0>         0.0550
     39 H16        -3.1105  -11.3328    3.5319 H         1 <0>         0.1044
     40 H17        -6.4484  -10.8918    2.1988 H         1 <0>         0.0569
     41 H18        -7.0304  -10.0477    3.6549 H         1 <0>         0.1029
     42 H19        -7.1651   -9.1867    0.6938 H         1 <0>         0.0930
     43 H20        -7.8420   -8.1575    1.9786 H         1 <0>         0.0674
     44 H21        -6.6334   -7.4955    0.8521 H         1 <0>         0.0796
@<TRIPOS>BOND
     1    1    2 1
     2    1   25 1
     3    1   26 1
     4    1   27 1
     5    2    3 1
     6    2   28 1
     7    2   29 1
     8    3    4 1
     9    3   30 1
    10    3   31 1
    11    4    5 2
    12    4    6 2
    13    4    7 1
    14    7    8 1
    15    8   13 ar
    16    8    9 ar
    17    9   10 ar
    18    9   32 1
    19   10   11 ar
    20   10   33 1
    21   11   12 ar
    22   11   14 1
    23   12   13 ar
    24   12   34 1
    25   13   35 1
    26   14   15 2
    27   14   16 2
    28   14   17 1
    29   17   22 1
    30   17   18 1
    31   18   19 1
    32   18   36 1
    33   18   37 1
    34   19   20 1
    35   19   38 1
    36   19   39 1
    37   20   21 1
    38   21   22 1
    39   21   40 1
    40   21   41 1
    41   22   23 1
    42   22   24 1
    43   24   42 1
    44   24   43 1
    45   24   44 1
@<TRIPOS>MOLECULE
ZINC07726736
   43    45     0     0     0
SMALL
USER_CHARGES

@<TRIPOS>ATOM
      1 C1         -0.0383    1.4886   -0.0276 C.3       1 <0>         0.0373
      2 O1         -0.0040    0.0600   -0.0351 O.3       1 <0>        -0.3581
      3 C2         -1.1891   -0.5803   -0.0197 C.2       1 <0>         0.4628
      4 O2         -2.2233    0.0565   -0.0004 O.2       1 <0>        -0.4056
      5 C3         -1.2309   -2.0570   -0.0263 C.ar      1 <0>        -0.0197
      6 C4         -0.0438   -2.7922   -0.0427 C.ar      1 <0>        -0.0927
      7 C5         -0.0901   -4.1707   -0.0487 C.ar      1 <0>        -0.0981
      8 C6         -1.3094   -4.8252   -0.0386 C.ar      1 <0>        -0.1151
      9 C7         -2.4893   -4.1030   -0.0228 C.ar      1 <0>        -0.0440
     10 C8         -2.4574   -2.7238   -0.0103 C.ar      1 <0>        -0.5687
     11 S1         -3.9612   -1.8059    0.0178 S.o2      1 <0>         2.6076
     12 O3         -3.8572   -0.8246   -1.0047 O.2       1 <0>        -1.0019
     13 O4         -5.0166   -2.7566    0.0567 O.2       1 <0>        -1.0392
     14 N1         -4.0083   -0.9872    1.4565 N.2       1 <0>        -1.0680
     15 C9         -5.0982   -0.1675    1.7581 C.ar      1 <0>         0.3100
     16 C10        -6.1463   -0.0427    0.8539 C.ar      1 <0>        -0.2820
     17 C11        -7.2244    0.7678    1.1516 C.ar      1 <0>        -0.0447
     18 C12        -7.2645    1.4574    2.3485 C.ar      1 <0>        -0.2640
     19 C13        -6.2202    1.3371    3.2566 C.ar      1 <0>         0.1867
     20 C14        -5.1385    0.5189    2.9635 C.ar      1 <0>        -0.2131
     21 N2         -6.2618    2.0357    4.4682 N.am      1 <0>        -0.5528
     22 C15        -7.3018    3.0063    4.8291 C.3       1 <0>         0.0982
     23 C16        -7.1931    3.1765    6.3606 C.3       1 <0>        -0.1313
     24 C17        -5.7152    2.7999    6.6155 C.3       1 <0>        -0.1534
     25 C18        -5.3576    1.8999    5.4534 C.2       1 <0>         0.5049
     26 O5         -4.3937    1.1647    5.4151 O.2       1 <0>        -0.5056
     27 H1          0.9802    1.8766   -0.0417 H         1 <0>         0.0961
     28 H2         -0.5746    1.8438   -0.9076 H         1 <0>         0.0596
     29 H3         -0.5467    1.8351    0.8721 H         1 <0>         0.0628
     30 H4          0.9084   -2.2826   -0.0509 H         1 <0>         0.1408
     31 H5          0.8272   -4.7405   -0.0618 H         1 <0>         0.1326
     32 H6         -1.3400   -5.9048   -0.0435 H         1 <0>         0.1327
     33 H7         -3.4374   -4.6201   -0.0157 H         1 <0>         0.1468
     34 H8         -6.1176   -0.5798   -0.0827 H         1 <0>         0.0950
     35 H9         -8.0376    0.8631    0.4473 H         1 <0>         0.1039
     36 H10        -8.1085    2.0909    2.5779 H         1 <0>         0.1021
     37 H11        -4.3276    0.4202    3.6698 H         1 <0>         0.1446
     38 H12        -7.1192    3.9579    4.3299 H         1 <0>         0.0750
     39 H13        -8.2859    2.6218    4.5612 H         1 <0>         0.0838
     40 H14        -7.3889    4.2080    6.6534 H         1 <0>         0.0897
     41 H15        -7.8649    2.4915    6.8779 H         1 <0>         0.0819
     42 H16        -5.0892    3.6923    6.6186 H         1 <0>         0.1030
     43 H17        -5.6160    2.2600    7.5572 H         1 <0>         0.1003
@<TRIPOS>BOND
     1    1    2 1
     2    1   27 1
     3    1   28 1
     4    1   29 1
     5    2    3 1
     6    3    4 2
     7    3    5 1
     8    5   10 ar
     9    5    6 ar
    10    6    7 ar
    11    6   30 1
    12    7    8 ar
    13    7   31 1
    14    8    9 ar
    15    8   32 1
    16    9   10 ar
    17    9   33 1
    18   10   11 1
    19   11   12 2
    20   11   13 2
    21   11   14 1
    22   14   15 1
    23   15   20 ar
    24   15   16 ar
    25   16   17 ar
    26   16   34 1
    27   17   18 ar
    28   17   35 1
    29   18   19 ar
    30   18   36 1
    31   19   20 ar
    32   19   21 1
    33   20   37 1
    34   21   25 am
    35   21   22 1
    36   22   23 1
    37   22   38 1
    38   22   39 1
    39   23   24 1
    40   23   40 1
    41   23   41 1
    42   24   25 1
    43   24   42 1
    44   24   43 1
    45   25   26 2
@<TRIPOS>MOLECULE
ZINC55435653
   45    47     0     0     0
SMALL
USER_CHARGES

@<TRIPOS>ATOM
      1 C1         -0.0187    1.5258    0.0104 C.3       1 <0>        -0.1488
      2 C2          0.0021   -0.0041    0.0020 C.3       1 <0>        -0.1188
      3 C3          0.7182   -0.4975   -1.2568 C.3       1 <0>        -0.0167
      4 C4          0.7386   -2.0043   -1.2651 C.2       1 <0>         0.1299
      5 N1          1.6601   -2.7669   -0.7482 N.2       1 <0>        -0.2968
      6 N2          1.3641   -4.0038   -0.9330 N.2       1 <0>        -0.3468
      7 C5          0.2276   -4.0980   -1.5836 C.2       1 <0>         0.3823
      8 N3         -0.2095   -2.8247   -1.8112 N.pl3     1 <0>        -0.4786
      9 C6         -1.4377   -2.4210   -2.5004 C.3       1 <0>         0.1085
     10 C7         -1.1597   -2.2671   -3.9735 C.2       1 <0>         0.5096
     11 O1         -0.0454   -2.4742   -4.4052 O.2       1 <0>        -0.5118
     12 N4         -2.1494   -1.8992   -4.8112 N.am      1 <0>        -0.6181
     13 C8         -3.5063   -1.6373   -4.3076 C.3       1 <0>         0.1137
     14 C9         -4.5014   -2.4461   -5.1466 C.3       1 <0>         0.0407
     15 N5         -4.2975   -2.1427   -6.5694 N.3       1 <0>        -0.5289
     16 C10        -2.9595   -2.5535   -7.0155 C.3       1 <0>         0.0378
     17 C11        -1.8998   -1.7432   -6.2522 C.3       1 <0>         0.1230
     18 C12        -5.3416   -2.7642   -7.3950 C.3       1 <0>         0.1274
     19 C13        -5.2478   -2.2375   -8.8039 C.2       1 <0>         0.0734
     20 C14        -4.5624   -2.9049   -9.7672 C.2       1 <0>        -0.2235
     21 S1         -4.8123   -1.8181  -11.1618 S.3       1 <0>         0.0959
     22 C15        -5.7447   -0.6534  -10.3828 C.2       1 <0>         0.0283
     23 N6         -5.8321   -1.1105   -9.1586 N.2       1 <0>        -0.4961
     24 S2         -0.5834   -5.5861   -2.0658 S.3       1 <0>        -0.8173
     25 H1          1.0039    1.9031    0.0027 H         1 <0>         0.0558
     26 H2         -0.5459    1.8868   -0.8726 H         1 <0>         0.0519
     27 H3         -0.5289    1.8773    0.9072 H         1 <0>         0.0537
     28 H4          0.5293   -0.3651    0.8851 H         1 <0>         0.0700
     29 H5         -1.0205   -0.3814    0.0098 H         1 <0>         0.0573
     30 H6          0.1910   -0.1364   -2.1398 H         1 <0>         0.0656
     31 H7          1.7408   -0.1202   -1.2645 H         1 <0>         0.0879
     32 H8         -2.2040   -3.1819   -2.3528 H         1 <0>         0.1250
     33 H9         -1.7862   -1.4710   -2.0952 H         1 <0>         0.1054
     34 H10        -3.5746   -1.9426   -3.2635 H         1 <0>         0.0892
     35 H11        -3.7311   -0.5745   -4.3968 H         1 <0>         0.0787
     36 H12        -4.3410   -3.5105   -4.9750 H         1 <0>         0.0476
     37 H13        -5.5189   -2.1804   -4.8602 H         1 <0>         0.0905
     38 H14        -2.8207   -3.6165   -6.8179 H         1 <0>         0.0447
     39 H15        -2.8589   -2.3657   -8.0844 H         1 <0>         0.0839
     40 H16        -1.9731   -0.6904   -6.5246 H         1 <0>         0.0710
     41 H17        -0.9055   -2.1186   -6.4943 H         1 <0>         0.0945
     42 H18        -5.2040   -3.8455   -7.4015 H         1 <0>         0.0542
     43 H19        -6.3216   -2.5251   -6.9822 H         1 <0>         0.0931
     44 H20        -4.0172   -3.8352   -9.7067 H         1 <0>         0.1949
     45 H21        -6.1709    0.2498  -10.7938 H         1 <0>         0.2167
@<TRIPOS>BOND
     1    1    2 1
     2    1   25 1
     3    1   26 1
     4    1   27 1
     5    2    3 1
     6    2   28 1
     7    2   29 1
     8    3   30 1
     9    3   31 1
    10    3    4 1
    11    4    8 1
    12    4    5 2
    13    5    6 1
    14    6    7 2
    15    7   24 1
    16    7    8 1
    17    8    9 1
    18    9   10 1
    19    9   32 1
    20    9   33 1
    21   10   11 2
    22   10   12 am
    23   12   17 1
    24   12   13 1
    25   13   14 1
    26   13   34 1
    27   13   35 1
    28   14   15 1
    29   14   36 1
    30   14   37 1
    31   15   16 1
    32   15   18 1
    33   16   17 1
    34   16   38 1
    35   16   39 1
    36   17   40 1
    37   17   41 1
    38   18   19 1
    39   18   42 1
    40   18   43 1
    41   19   23 1
    42   19   20 2
    43   20   21 1
    44   20   44 1
    45   21   22 1
    46   22   23 2
    47   22   45 1
@<TRIPOS>MOLECULE
ZINC01350407
   38    40     0     0     0
SMALL
USER_CHARGES
5-methyl-4-(2-methyl-1-methylsulfonyl-indolin-5-yl)-thiazol-2-amine
@<TRIPOS>ATOM
      1 C1         -1.5178    6.0954   -1.4375 C.3       1 <0>        -0.0603
      2 C2         -0.2891    6.4397   -0.6358 C.2       1 <0>        -0.1977
      3 C3          0.5768    5.6177    0.0272 C.2       1 <0>         0.1368
      4 N1          1.6061    6.1485    0.6833 N.2       1 <0>        -0.5660
      5 C4          1.8089    7.4533    0.6940 C.2       1 <0>         0.3812
      6 S1          0.4364    8.0369   -0.2907 S.3       1 <0>        -0.0198
      7 N2          2.8159    8.1784    1.3103 N.pl3     1 <0>        -0.7975
      8 C5          0.3689    4.1491    0.0213 C.ar      1 <0>        -0.0427
      9 C6         -0.9223    3.6231    0.0308 C.ar      1 <0>        -0.0711
     10 C7         -1.1124    2.2603    0.0302 C.ar      1 <0>        -0.1530
     11 C8         -0.0169    1.3923    0.0097 C.ar      1 <0>         0.1654
     12 C9          1.2656    1.9204    0.0003 C.ar      1 <0>        -0.1314
     13 C10         1.4629    3.2860    0.0057 C.ar      1 <0>        -0.0411
     14 C11         2.2561    0.7776   -0.0153 C.3       1 <0>        -0.0789
     15 C12         1.3846   -0.4889   -0.0138 C.3       1 <0>         0.1452
     16 H1          1.5692   -1.0759   -0.9135 H         1 <0>         0.0911
     17 N3          0.0021   -0.0041    0.0020 N.pl3     1 <0>        -0.9349
     18 S2         -1.3423   -0.9711    0.0088 S.o2      1 <0>         2.6090
     19 O1         -0.9102   -2.1885    0.6008 O.2       1 <0>        -0.9384
     20 O2         -2.3519   -0.1840    0.6255 O.2       1 <0>        -0.9388
     21 C13        -1.7368   -1.2332   -1.7423 C.3       1 <0>        -0.6701
     22 C14         1.6669   -1.3283    1.2338 C.3       1 <0>        -0.1876
     23 H2         -2.3892    6.0904   -0.7828 H         1 <0>         0.0774
     24 H3         -1.6582    6.8372   -2.2238 H         1 <0>         0.0720
     25 H4         -1.3946    5.1096   -1.8859 H         1 <0>         0.0854
     26 H5          2.8342    9.1452    1.2334 H         1 <0>         0.4212
     27 H6          3.5026    7.7193    1.8188 H         1 <0>         0.4176
     28 H7         -1.7746    4.2864    0.0429 H         1 <0>         0.1365
     29 H8         -2.1148    1.8586    0.0425 H         1 <0>         0.1463
     30 H9          2.4659    3.6863   -0.0017 H         1 <0>         0.1294
     31 H10         2.8852    0.8074    0.8743 H         1 <0>         0.0933
     32 H11         2.8697    0.8159   -0.9154 H         1 <0>         0.0907
     33 H12        -0.8942   -1.7175   -2.2360 H         1 <0>         0.1303
     34 H13        -2.6196   -1.8672   -1.8248 H         1 <0>         0.1347
     35 H14        -1.9335   -0.2726   -2.2182 H         1 <0>         0.1315
     36 H15         0.9904   -2.1827    1.2576 H         1 <0>         0.0955
     37 H16         2.6977   -1.6817    1.2084 H         1 <0>         0.0754
     38 H17         1.5137   -0.7187    2.1243 H         1 <0>         0.0635
@<TRIPOS>BOND
     1    1    2 1
     2    1   23 1
     3    1   24 1
     4    1   25 1
     5    2    6 1
     6    2    3 2
     7    3    4 1
     8    3    8 1
     9    4    5 2
    10    5    6 1
    11    5    7 1
    12    7   26 1
    13    7   27 1
    14    8   13 ar
    15    8    9 ar
    16    9   10 ar
    17    9   28 1
    18   10   11 ar
    19   10   29 1
    20   11   17 1
    21   11   12 ar
    22   12   13 ar
    23   12   14 1
    24   13   30 1
    25   14   15 1
    26   14   31 1
    27   14   32 1
    28   15   16 1
    29   15   17 1
    30   15   22 1
    31   17   18 1
    32   18   19 2
    33   18   20 2
    34   18   21 1
    35   21   33 1
    36   21   34 1
    37   21   35 1
    38   22   36 1
    39   22   37 1
    40   22   38 1
@<TRIPOS>MOLECULE
ZINC36857900
   34    36     0     0     0
SMALL
USER_CHARGES

@<TRIPOS>ATOM
      1 C1          2.0441    2.6793   -0.1431 C.3       1 <0>        -0.0913
      2 C2          1.7799    1.1959   -0.1120 C.2       1 <0>         0.0785
      3 C3          1.2957    0.4457   -1.1347 C.2       1 <0>        -0.0121
      4 C4          1.2016   -0.8804   -0.6877 C.2       1 <0>         0.1020
      5 N1          1.6125   -0.9266    0.5536 N.2       1 <0>        -0.2823
      6 N2          1.9885    0.3655    0.9425 N.pl3     1 <0>        -0.4706
      7 H1          2.3346    0.6221    1.8115 H         1 <0>         0.4444
      8 C5          0.7106   -2.0520   -1.4985 C.3       1 <0>        -0.0638
      9 N3          0.9493    0.9151   -2.4152 N.am      1 <0>        -0.6510
     10 C6          1.3936    0.2704   -3.5123 C.2       1 <0>         0.5907
     11 O1          2.0045   -0.7761   -3.3975 O.2       1 <0>        -0.5033
     12 C7          1.1409    0.8298   -4.8443 C.2       1 <0>        -0.0402
     13 C8          1.6435    0.3538   -6.0368 C.2       1 <0>        -0.0733
     14 C9          1.1508    1.1822   -7.0506 C.2       1 <0>        -0.1778
     15 C10         0.3730    2.1289   -6.4722 C.2       1 <0>         0.0626
     16 N4          0.3542    1.9219   -5.1319 N.pl3     1 <0>        -0.3943
     17 C11        -0.3784    2.7289   -4.1530 C.3       1 <0>         0.0239
     18 C12        -1.0544    4.0064   -4.6547 C.3       1 <0>        -0.1578
     19 C13         0.2031    4.0962   -3.7877 C.3       1 <0>        -0.1739
     20 Br1         1.5078    1.0117   -8.8997 Br        1 <0>        -0.0203
     21 H2          3.0652    2.8595   -0.4793 H         1 <0>         0.0850
     22 H3          1.3458    3.1584   -0.8293 H         1 <0>         0.0799
     23 H4          1.9125    3.0928    0.8568 H         1 <0>         0.0772
     24 H5          1.5633   -2.5923   -1.9095 H         1 <0>         0.0883
     25 H6          0.1315   -2.7188   -0.8596 H         1 <0>         0.0688
     26 H7          0.0817   -1.6922   -2.3128 H         1 <0>         0.0686
     27 H8          0.3908    1.7027   -2.5084 H         1 <0>         0.4003
     28 H9          2.2951   -0.4980   -6.1640 H         1 <0>         0.1606
     29 H10        -0.1499    2.9171   -6.9936 H         1 <0>         0.1786
     30 H11        -0.8816    2.1691   -3.3646 H         1 <0>         0.1438
     31 H12        -0.9541    4.2465   -5.7132 H         1 <0>         0.1111
     32 H13        -2.0027    4.2873   -4.1965 H         1 <0>         0.1202
     33 H14         0.0820    4.4361   -2.7592 H         1 <0>         0.1167
     34 H15         1.1306    4.3953   -4.2759 H         1 <0>         0.1110
@<TRIPOS>BOND
     1    1    2 1
     2    1   21 1
     3    1   22 1
     4    1   23 1
     5    2    6 1
     6    2    3 2
     7    3    4 1
     8    3    9 1
     9    4    5 2
    10    4    8 1
    11    5    6 1
    12    6    7 1
    13    8   24 1
    14    8   25 1
    15    8   26 1
    16    9   10 am
    17    9   27 1
    18   10   11 2
    19   10   12 1
    20   12   16 1
    21   12   13 2
    22   13   14 1
    23   13   28 1
    24   14   15 2
    25   14   20 1
    26   15   16 1
    27   15   29 1
    28   16   17 1
    29   17   19 1
    30   17   18 1
    31   17   30 1
    32   18   19 1
    33   18   31 1
    34   18   32 1
    35   19   33 1
    36   19   34 1
@<TRIPOS>MOLECULE
ZINC39458525
   40    43     0     0     0
SMALL
USER_CHARGES

@<TRIPOS>ATOM
      1 C1         -0.0184    1.5028    0.0103 C.3       1 <0>        -0.0913
      2 C2          0.0021   -0.0041    0.0020 C.2       1 <0>         0.0424
      3 C3          0.0082   -0.7876   -1.1067 C.2       1 <0>         0.0271
      4 C4          0.0274   -2.1157   -0.6869 C.2       1 <0>        -0.0953
      5 C5          0.0303   -2.1223    0.6988 C.2       1 <0>         0.0153
      6 N1          0.0234   -0.8004    1.1032 N.pl3     1 <0>        -0.3734
      7 C6          0.0332   -0.3542    2.4322 C.ar      1 <0>         0.0585
      8 C7         -1.1621   -0.1523    3.1070 C.ar      1 <0>        -0.1123
      9 C8         -1.1499    0.2871    4.4170 C.ar      1 <0>        -0.1132
     10 C9          0.0516    0.5267    5.0585 C.ar      1 <0>        -0.0782
     11 C10         1.2466    0.3278    4.3929 C.ar      1 <0>        -0.1309
     12 C11         1.2432   -0.1178    3.0807 C.ar      1 <0>         0.1375
     13 O1          2.4177   -0.3188    2.4262 O.3       1 <0>        -0.4835
     14 C12         0.0376   -3.2744    1.5929 C.2       1 <0>         0.3164
     15 C13         0.6643   -4.4865    1.3106 C.2       1 <0>        -0.3031
     16 C14         0.7316   -5.4867    2.4035 C.2       1 <0>         0.4020
     17 C15         0.0700   -5.2121    3.6210 C.2       1 <0>        -0.2669
     18 C16        -0.5939   -4.0502    3.7704 C.2       1 <0>         0.1332
     19 N2         -0.6234   -3.1193    2.7889 N.pl3     1 <0>        -0.5988
     20 O2          1.3480   -6.5297    2.2535 O.2       1 <0>        -0.4609
     21 C17         1.2085   -4.8858    0.0849 C.2       1 <0>         0.3957
     22 O3          1.7081   -5.9926    0.0814 O.2       1 <0>        -0.4377
     23 C18         1.2685   -4.1757   -1.1943 C.3       1 <0>        -0.1585
     24 C19         0.0456   -3.3519   -1.5346 C.3       1 <0>        -0.0516
     25 F1         -0.0025   -0.3566   -2.3870 F         1 <0>        -0.1151
     26 H1          1.0042    1.8801    0.0026 H         1 <0>         0.0812
     27 H2         -0.5455    1.8639   -0.8728 H         1 <0>         0.0925
     28 H3         -0.5286    1.8543    0.9071 H         1 <0>         0.0734
     29 H4         -2.1019   -0.3382    2.6084 H         1 <0>         0.1416
     30 H5         -2.0810    0.4443    4.9411 H         1 <0>         0.1443
     31 H6          0.0563    0.8704    6.0824 H         1 <0>         0.1428
     32 H7          2.1831    0.5158    4.8968 H         1 <0>         0.1458
     33 H8          2.7444    0.4605    1.9561 H         1 <0>         0.3986
     34 H9          0.0963   -5.9302    4.4274 H         1 <0>         0.1563
     35 H10        -1.1159   -3.8568    4.6959 H         1 <0>         0.1691
     36 H11         2.1339   -3.5132   -1.1781 H         1 <0>         0.0987
     37 H12         1.4189   -4.9090   -1.9865 H         1 <0>         0.1043
     38 H13        -0.8528   -3.9383   -1.3419 H         1 <0>         0.0856
     39 H14         0.0779   -3.0707   -2.5872 H         1 <0>         0.0950
     40 H15        -1.1328   -2.3069    2.9353 H         1 <0>         0.4132
@<TRIPOS>BOND
     1    1    2 1
     2    1   26 1
     3    1   27 1
     4    1   28 1
     5    2    6 1
     6    2    3 2
     7    3    4 1
     8    3   25 1
     9    4   24 1
    10    4    5 2
    11    5    6 1
    12    5   14 1
    13    6    7 1
    14    7   12 ar
    15    7    8 ar
    16    8    9 ar
    17    8   29 1
    18    9   10 ar
    19    9   30 1
    20   10   11 ar
    21   10   31 1
    22   11   12 ar
    23   11   32 1
    24   12   13 1
    25   13   33 1
    26   14   19 1
    27   14   15 2
    28   15   16 1
    29   15   21 1
    30   16   17 1
    31   16   20 2
    32   17   18 2
    33   17   34 1
    34   18   19 1
    35   18   35 1
    36   19   40 1
    37   21   22 2
    38   21   23 1
    39   23   24 1
    40   23   36 1
    41   23   37 1
    42   24   38 1
    43   24   39 1
@<TRIPOS>MOLECULE
ZINC50728255
   29    30     0     0     0
SMALL
USER_CHARGES

@<TRIPOS>ATOM
      1 C1         -0.0132    1.5022    0.1146 C.3       1 <0>        -0.0612
      2 C2          0.0064   -0.0043    0.0858 C.2       1 <0>        -0.2066
      3 C3         -1.0263   -0.8821    0.0541 C.2       1 <0>         0.0548
      4 N1         -0.7217   -2.1665    0.0336 N.2       1 <0>        -0.5135
      5 C4          0.5310   -2.5684    0.0437 C.2       1 <0>         0.2611
      6 S1          1.3962   -1.1251    0.0761 S.3       1 <0>         0.1151
      7 N2          1.0207   -3.8681    0.0263 N.am      1 <0>        -0.6161
      8 C5          0.1661   -4.9098   -0.0057 C.2       1 <0>         0.5795
      9 O1         -1.0337   -4.7118   -0.0194 O.2       1 <0>        -0.4792
     10 C6          0.6857   -6.2889   -0.0242 C.ar      1 <0>        -0.2670
     11 C7          2.0605   -6.5312   -0.1303 C.ar      1 <0>         0.0365
     12 C8          2.4974   -7.8444   -0.1428 C.ar      1 <0>        -0.2241
     13 C9          1.5732   -8.8712   -0.0510 C.ar      1 <0>         0.2275
     14 N3          0.2823   -8.6216    0.0482 N.ar      1 <0>        -0.5335
     15 C10        -0.1893   -7.3844    0.0702 C.ar      1 <0>         0.4694
     16 N4         -1.5510   -7.1694    0.1816 N.pl3     1 <0>        -0.6937
     17 C11        -2.4558   -8.3008    0.3996 C.3       1 <0>         0.0871
     18 Br1         4.3426   -8.2332   -0.2847 Br        1 <0>        -0.0293
     19 H1          1.0096    1.8787    0.1311 H         1 <0>         0.0741
     20 H2         -0.5238    1.8760   -0.7729 H         1 <0>         0.0832
     21 H3         -0.5397    1.8417    1.0066 H         1 <0>         0.0833
     22 H4         -2.0525   -0.5455    0.0462 H         1 <0>         0.1762
     23 H5          2.7626   -5.7137   -0.2010 H         1 <0>         0.1440
     24 H6          1.9158   -9.8953   -0.0613 H         1 <0>         0.1735
     25 H7         -1.9069   -6.2695    0.1153 H         1 <0>         0.4288
     26 H8         -3.4821   -7.9387    0.4610 H         1 <0>         0.0775
     27 H9         -2.3670   -9.0022   -0.4299 H         1 <0>         0.0650
     28 H10        -2.1916   -8.8032    1.3302 H         1 <0>         0.0621
     29 H11         1.9777   -4.0260    0.0372 H         1 <0>         0.4256
@<TRIPOS>BOND
     1    1    2 1
     2    1   19 1
     3    1   20 1
     4    1   21 1
     5    2    6 1
     6    2    3 2
     7    3    4 1
     8    3   22 1
     9    4    5 2
    10    5    6 1
    11    5    7 1
    12    7    8 am
    13    7   29 1
    14    8    9 2
    15    8   10 1
    16   10   15 ar
    17   10   11 ar
    18   11   12 ar
    19   11   23 1
    20   12   13 ar
    21   12   18 1
    22   13   14 ar
    23   13   24 1
    24   14   15 ar
    25   15   16 1
    26   16   17 1
    27   16   25 1
    28   17   26 1
    29   17   27 1
    30   17   28 1
@<TRIPOS>MOLECULE
ZINC63244170
   37    38     0     0     0
SMALL
USER_CHARGES

@<TRIPOS>ATOM
      1 C1          0.1871    1.4667    0.0243 C.3       1 <0>        -0.1311
      2 C2          0.0934   -0.0373    0.0127 C.ar      1 <0>         0.0286
      3 C3         -0.0296   -0.7133   -1.1838 C.ar      1 <0>        -0.1414
      4 C4         -0.1158   -2.0939   -1.1961 C.ar      1 <0>         0.0111
      5 C5         -0.0797   -2.8062   -0.0102 C.ar      1 <0>        -0.6871
      6 C6          0.0429   -2.1428    1.1929 C.ar      1 <0>         0.0163
      7 C7          0.1366   -0.7500    1.2120 C.ar      1 <0>        -0.1560
      8 C8          0.2744   -0.0328    2.4971 C.2       1 <0>         0.5688
      9 O1          1.1952    0.7430    2.6646 O.2       1 <0>        -0.4943
     10 N1         -0.6209   -0.2390    3.4833 N.am      1 <0>        -0.5461
     11 C9         -1.6521   -1.2686    3.3329 C.3       1 <0>         0.0520
     12 C10        -0.5653    0.5305    4.6509 C.ar      1 <0>         0.1705
     13 C11         0.2944    1.6186    4.7262 C.ar      1 <0>        -0.1416
     14 C12         0.3482    2.3778    5.8788 C.ar      1 <0>        -0.0984
     15 C13        -0.4538    2.0551    6.9600 C.ar      1 <0>         0.0451
     16 C14        -1.3133    0.9693    6.8881 C.ar      1 <0>         0.0957
     17 C15        -1.3738    0.2104    5.7332 C.ar      1 <0>        -0.1683
     18 F1         -2.0950    0.6554    7.9443 F         1 <0>        -0.1234
     19 F2         -0.3987    2.7986    8.0866 F         1 <0>        -0.1281
     20 S1         -0.1914   -4.5645   -0.0371 S.o2      1 <0>         2.7024
     21 O2         -0.6828   -4.9597    1.2363 O.2       1 <0>        -0.9596
     22 O3         -0.8485   -4.9112   -1.2484 O.2       1 <0>        -0.9574
     23 N2          1.3528   -5.1515   -0.1515 N.pl3     1 <0>        -1.2491
     24 H1          1.2352    1.7653    0.0434 H         1 <0>         0.0946
     25 H2         -0.2885    1.8672   -0.8710 H         1 <0>         0.0803
     26 H3         -0.3177    1.8554    0.9087 H         1 <0>         0.0732
     27 H4         -0.0590   -0.1633   -2.1128 H         1 <0>         0.1466
     28 H5         -0.2120   -2.6182   -2.1354 H         1 <0>         0.1520
     29 H6          0.0706   -2.6999    2.1177 H         1 <0>         0.1500
     30 H7         -1.2497   -2.2337    3.6409 H         1 <0>         0.0810
     31 H8         -2.5102   -1.0172    3.9562 H         1 <0>         0.0923
     32 H9         -1.9637   -1.3211    2.2897 H         1 <0>         0.0877
     33 H10         0.9212    1.8710    3.8836 H         1 <0>         0.1888
     34 H11         1.0170    3.2239    5.9368 H         1 <0>         0.1518
     35 H12        -2.0462   -0.6327    5.6750 H         1 <0>         0.1521
     36 H13         2.1033   -4.5381   -0.1896 H         1 <0>         0.4178
     37 H14         1.5069   -6.1087   -0.1805 H         1 <0>         0.4234
@<TRIPOS>BOND
     1    1    2 1
     2    1   24 1
     3    1   25 1
     4    1   26 1
     5    2    7 ar
     6    2    3 ar
     7    3    4 ar
     8    3   27 1
     9    4    5 ar
    10    4   28 1
    11    5    6 ar
    12    5   20 1
    13    6    7 ar
    14    6   29 1
    15    7    8 1
    16    8    9 2
    17    8   10 am
    18   10   11 1
    19   10   12 1
    20   11   30 1
    21   11   31 1
    22   11   32 1
    23   12   17 ar
    24   12   13 ar
    25   13   14 ar
    26   13   33 1
    27   14   15 ar
    28   14   34 1
    29   15   16 ar
    30   15   19 1
    31   16   17 ar
    32   16   18 1
    33   17   35 1
    34   20   21 2
    35   20   22 2
    36   20   23 1
    37   23   36 1
    38   23   37 1
@<TRIPOS>MOLECULE
ZINC66811800
   45    48     0     0     0
SMALL
USER_CHARGES

@<TRIPOS>ATOM
      1 C1         -0.0169    1.3931    0.0097 C.ar      1 <0>        -0.1265
      2 C2          1.1811    2.0792    0.0019 C.ar      1 <0>         0.0912
      3 N1          2.3309    1.4334   -0.0125 N.ar      1 <0>        -0.4749
      4 C3          2.3927    0.1161   -0.0202 C.ar      1 <0>         0.0920
      5 C4          1.2424   -0.6473   -0.0133 C.ar      1 <0>        -0.1252
      6 C5          0.0021   -0.0041    0.0020 C.ar      1 <0>         0.0043
      7 C6         -1.2608   -0.7836    0.0104 C.ar      1 <0>         0.3965
      8 N2         -1.2021   -2.1074    0.0082 N.ar      1 <0>        -0.5414
      9 C7         -2.3073   -2.8389    0.0158 C.ar      1 <0>         0.1965
     10 C8         -3.5335   -2.2043    0.0260 C.ar      1 <0>        -0.2701
     11 C9         -3.5652   -0.8078    0.0281 C.ar      1 <0>         0.4617
     12 N3         -2.4179   -0.1378    0.0253 N.ar      1 <0>        -0.5601
     13 N4         -4.7746   -0.1317    0.0380 N.pl3     1 <0>        -0.6970
     14 C10        -4.7948    1.3332    0.0401 C.3       1 <0>         0.1643
     15 H1         -3.9538    1.7073    0.6238 H         1 <0>         0.0972
     16 C11        -4.6868    1.8468   -1.3970 C.3       1 <0>        -0.1273
     17 C12        -4.7080    3.3767   -1.3948 C.3       1 <0>        -0.1193
     18 C13        -6.0177    3.8677   -0.7748 C.3       1 <0>        -0.1204
     19 C14        -6.1257    3.3541    0.6624 C.3       1 <0>        -0.1487
     20 C15        -6.1046    1.8242    0.6601 C.3       1 <0>         0.0969
     21 H2         -6.9456    1.4500    0.0764 H         1 <0>         0.0585
     22 O1         -6.2054    1.3445    2.0024 O.3       1 <0>        -0.5619
     23 C16        -4.6437   -3.2289    0.0331 C.3       1 <0>        -0.0631
     24 C17        -3.9767   -4.5492   -0.4101 C.3       1 <0>        -0.1169
     25 C18        -2.5078   -4.3377    0.0160 C.3       1 <0>        -0.0724
     26 H3         -0.9548    1.9283    0.0260 H         1 <0>         0.1453
     27 H4          1.1766    3.1592    0.0074 H         1 <0>         0.1603
     28 H5          3.3560   -0.3720   -0.0323 H         1 <0>         0.1614
     29 H6          1.3004   -1.7257   -0.0200 H         1 <0>         0.1486
     30 H7         -5.6078   -0.6283    0.0435 H         1 <0>         0.4108
     31 H8         -3.7538    1.4970   -1.8387 H         1 <0>         0.0747
     32 H9         -5.5279    1.4727   -1.9808 H         1 <0>         0.0638
     33 H10        -3.8670    3.7508   -0.8111 H         1 <0>         0.0681
     34 H11        -4.6311    3.7426   -2.4187 H         1 <0>         0.0695
     35 H12        -6.0328    4.9576   -0.7732 H         1 <0>         0.0701
     36 H13        -6.8588    3.4935   -1.3585 H         1 <0>         0.0644
     37 H14        -5.2847    3.7282    1.2461 H         1 <0>         0.0752
     38 H15        -7.0588    3.7039    1.1041 H         1 <0>         0.0708
     39 H16        -7.0132    1.6180    2.4582 H         1 <0>         0.3800
     40 H17        -5.0570   -3.3320    1.0364 H         1 <0>         0.0805
     41 H18        -5.4253   -2.9447   -0.6716 H         1 <0>         0.0727
     42 H19        -4.4137   -5.3991    0.1141 H         1 <0>         0.0861
     43 H20        -4.0522   -4.6780   -1.4899 H         1 <0>         0.0770
     44 H21        -1.8347   -4.8094   -0.6999 H         1 <0>         0.0909
     45 H22        -2.3420   -4.7413    1.0149 H         1 <0>         0.0961
@<TRIPOS>BOND
     1    1    6 ar
     2    1    2 ar
     3    1   26 1
     4    2    3 ar
     5    2   27 1
     6    3    4 ar
     7    4    5 ar
     8    4   28 1
     9    5    6 ar
    10    5   29 1
    11    6    7 1
    12    7   12 ar
    13    7    8 ar
    14    8    9 ar
    15    9   25 1
    16    9   10 ar
    17   10   11 ar
    18   10   23 1
    19   11   12 ar
    20   11   13 1
    21   13   14 1
    22   13   30 1
    23   14   15 1
    24   14   20 1
    25   14   16 1
    26   16   17 1
    27   16   31 1
    28   16   32 1
    29   17   18 1
    30   17   33 1
    31   17   34 1
    32   18   19 1
    33   18   35 1
    34   18   36 1
    35   19   20 1
    36   19   37 1
    37   19   38 1
    38   20   21 1
    39   20   22 1
    40   22   39 1
    41   23   24 1
    42   23   40 1
    43   23   41 1
    44   24   25 1
    45   24   42 1
    46   24   43 1
    47   25   44 1
    48   25   45 1
@<TRIPOS>MOLECULE
ZINC19880987
   36    38     0     0     0
SMALL
USER_CHARGES
2-[(3S)-1-(3-nitrophenyl)-2,5-dioxo-pyrrolidin-3-yl]sulfanylpyridine-3-carboxylic acid
@<TRIPOS>ATOM
      1 C1          6.8170    5.0766    4.4222 C.ar      1 <0>        -0.1058
      2 C2          6.1789    5.0989    3.1971 C.ar      1 <0>        -0.0513
      3 C3          4.8168    4.8429    3.1208 C.ar      1 <0>         0.1251
      4 C4          4.1017    4.5546    4.2755 C.ar      1 <0>        -0.0383
      5 C5          4.7460    4.5285    5.4967 C.ar      1 <0>        -0.0330
      6 C6          6.1022    4.7892    5.5702 C.ar      1 <0>        -0.0495
      7 N1          3.9845    4.2208    6.7281 N.pl3     1 <0>         0.0275
      8 O1          2.7902    3.9907    6.6640 O.2       1 <0>        -0.1489
      9 O2          4.5522    4.1976    7.8054 O.3       1 <0>        -0.1556
     10 N2          4.1655    4.8696    1.8796 N.am      1 <0>        -0.5357
     11 C7          4.0034    5.9935    1.1705 C.2       1 <0>         0.5333
     12 O3          4.3872    7.0945    1.5022 O.2       1 <0>        -0.4765
     13 C8          3.2656    5.6717   -0.1108 C.3       1 <0>        -0.1319
     14 C9          3.0269    4.1508   -0.0183 C.3       1 <0>        -0.1824
     15 H1          3.6061    3.6546   -0.8109 H         1 <0>         0.1445
     16 C10         3.6549    3.7731    1.3056 C.2       1 <0>         0.5347
     17 O4          3.6899    2.6550    1.7726 O.2       1 <0>        -0.4327
     18 S1          1.2546    3.7835   -0.0104 S.3       1 <0>         0.1289
     19 C11         1.3069    2.0227   -0.0520 C.ar      1 <0>         0.1085
     20 C12         0.1079    1.2867   -0.0581 C.ar      1 <0>        -0.1483
     21 C13         0.1758   -0.1113   -0.0914 C.ar      1 <0>        -0.0240
     22 C14         1.4235   -0.7084   -0.1170 C.ar      1 <0>        -0.1932
     23 C15         2.5587    0.0830   -0.1090 C.ar      1 <0>         0.1094
     24 N3          2.4751    1.3984   -0.0775 N.ar      1 <0>        -0.4750
     25 C16        -1.1941    1.9740   -0.0360 C.2       1 <0>         0.4907
     26 O5         -1.2400    3.1881   -0.0071 O.co2     1 <0>        -0.5961
     27 O6         -2.3351    1.2566   -0.0477 O.co2     1 <0>        -0.7381
     28 H2          7.8759    5.2802    4.4827 H         1 <0>         0.1571
     29 H3          6.7385    5.3195    2.3001 H         1 <0>         0.1469
     30 H4          3.0425    4.3512    4.2188 H         1 <0>         0.1598
     31 H5          6.6039    4.7686    6.5264 H         1 <0>         0.1596
     32 H6          2.3252    6.2412   -0.1453 H         1 <0>         0.1323
     33 H7          3.8916    5.9451   -0.9730 H         1 <0>         0.1335
     34 H8         -0.7238   -0.7089   -0.0974 H         1 <0>         0.1447
     35 H9          1.5110   -1.7845   -0.1433 H         1 <0>         0.1303
     36 H10         3.5314   -0.3858   -0.1287 H         1 <0>         0.1493
@<TRIPOS>BOND
     1    1    6 ar
     2    1    2 ar
     3    1   28 1
     4    2    3 ar
     5    2   29 1
     6    3    4 ar
     7    3   10 1
     8    4    5 ar
     9    4   30 1
    10    5    6 ar
    11    5    7 1
    12    6   31 1
    13    7    8 2
    14    7    9 1
    15   10   16 am
    16   10   11 am
    17   11   12 2
    18   11   13 1
    19   13   14 1
    20   13   32 1
    21   13   33 1
    22   14   15 1
    23   14   16 1
    24   14   18 1
    25   16   17 2
    26   18   19 1
    27   19   24 ar
    28   19   20 ar
    29   20   21 ar
    30   20   25 1
    31   21   22 ar
    32   21   34 1
    33   22   23 ar
    34   22   35 1
    35   23   24 ar
    36   23   36 1
    37   25   26 2
    38   25   27 1
@<TRIPOS>MOLECULE
ZINC37837273
   42    42     0     0     0
SMALL
USER_CHARGES

@<TRIPOS>ATOM
      1 C1         -0.0187    1.5258    0.0104 C.3       1 <0>        -0.1529
      2 C2          0.0021   -0.0041    0.0020 C.3       1 <0>         0.1398
      3 C3          0.7421   -0.5109    1.2415 C.3       1 <0>        -0.1678
      4 N1         -1.3723   -0.5112    0.0124 N.pl3     1 <0>        -0.9862
      5 C4         -2.2686   -0.1755    1.1216 C.3       1 <0>         0.1327
      6 C5         -2.9164    1.1593    0.8576 C.2       1 <0>         0.4446
      7 O1         -2.6562    1.7678   -0.1533 O.2       1 <0>        -0.4935
      8 O2         -3.7826    1.6723    1.7455 O.3       1 <0>        -0.3531
      9 C6         -4.3589    2.9415    1.4309 C.3       1 <0>         0.0346
     10 S1         -1.9128   -1.4638   -1.2296 S.o2      1 <0>         2.7805
     11 O3         -3.3275   -1.3325   -1.2562 O.2       1 <0>        -0.9697
     12 O4         -1.0987   -1.1643   -2.3551 O.2       1 <0>        -0.9764
     13 N2         -1.5910   -3.0350   -0.8173 N.pl3     1 <0>        -1.0023
     14 C7         -0.3117   -3.6580   -1.1835 C.3       1 <0>         0.1229
     15 C8          0.3324   -4.2401    0.0787 C.3       1 <0>        -0.1334
     16 C9         -0.6564   -5.1888    0.7601 C.3       1 <0>        -0.0932
     17 C10        -1.9097   -4.4127    1.1713 C.3       1 <0>        -0.1658
     18 H1         -1.6310   -3.6019    1.8443 H         1 <0>         0.0651
     19 C11        -2.5768   -3.8307   -0.0732 C.3       1 <0>         0.1457
     20 C12        -2.8687   -5.3406    1.8717 C.2       1 <0>         0.4988
     21 O5         -2.5278   -5.9117    2.8935 O.co2     1 <0>        -0.6971
     22 O6         -3.9854   -5.5202    1.4165 O.co2     1 <0>        -0.6943
     23 H2          1.0039    1.9031    0.0027 H         1 <0>         0.0606
     24 H3         -0.5459    1.8868   -0.8726 H         1 <0>         0.0726
     25 H4         -0.5289    1.8773    0.9072 H         1 <0>         0.0498
     26 H5          0.5123   -0.3556   -0.8948 H         1 <0>         0.1015
     27 H6          0.2319   -0.1594    2.1383 H         1 <0>         0.0606
     28 H7          0.7568   -1.6008    1.2356 H         1 <0>         0.0678
     29 H8          1.7647   -0.1336    1.2338 H         1 <0>         0.0684
     30 H9         -3.0386   -0.9417    1.2112 H         1 <0>         0.1274
     31 H10        -1.6968   -0.1249    2.0482 H         1 <0>         0.1257
     32 H11        -3.5680    3.6847    1.3302 H         1 <0>         0.0579
     33 H12        -4.9098    2.8679    0.4932 H         1 <0>         0.0606
     34 H13        -5.0385    3.2399    2.2291 H         1 <0>         0.1008
     35 H14        -0.4871   -4.4557   -1.9054 H         1 <0>         0.0711
     36 H15         0.3489   -2.9078   -1.6182 H         1 <0>         0.0798
     37 H16         1.2344   -4.7885   -0.1930 H         1 <0>         0.0681
     38 H17         0.5900   -3.4309    0.7620 H         1 <0>         0.0639
     39 H18        -0.9326   -5.9840    0.0677 H         1 <0>         0.0559
     40 H19        -0.1916   -5.6233    1.6451 H         1 <0>         0.0675
     41 H20        -3.4102   -3.1944    0.2246 H         1 <0>         0.0836
     42 H21        -2.9410   -4.6428   -0.7024 H         1 <0>         0.0773
@<TRIPOS>BOND
     1    1    2 1
     2    1   23 1
     3    1   24 1
     4    1   25 1
     5    2    3 1
     6    2    4 1
     7    2   26 1
     8    3   27 1
     9    3   28 1
    10    3   29 1
    11    4    5 1
    12    4   10 1
    13    5    6 1
    14    5   30 1
    15    5   31 1
    16    6    7 2
    17    6    8 1
    18    8    9 1
    19    9   32 1
    20    9   33 1
    21    9   34 1
    22   10   11 2
    23   10   12 2
    24   10   13 1
    25   13   19 1
    26   13   14 1
    27   14   15 1
    28   14   35 1
    29   14   36 1
    30   15   16 1
    31   15   37 1
    32   15   38 1
    33   16   17 1
    34   16   39 1
    35   16   40 1
    36   17   18 1
    37   17   19 1
    38   17   20 1
    39   19   41 1
    40   19   42 1
    41   20   21 2
    42   20   22 1
@<TRIPOS>MOLECULE
ZINC05511030
   37    38     0     0     0
SMALL
USER_CHARGES

@<TRIPOS>ATOM
      1 C1          0.1323   -2.9333   -3.7171 C.3       1 <0>         0.0573
      2 O1          1.0620   -4.0064   -3.8789 O.3       1 <0>        -0.3373
      3 C2          2.2413   -3.7123   -4.4672 C.2       1 <0>         0.6319
      4 O2          3.1645   -4.6806   -4.6504 O.3       1 <0>        -0.6958
      5 N1          2.4877   -2.4984   -4.8568 N.2       1 <0>        -1.1055
      6 S1          3.9339   -2.1378   -5.5783 S.o2      1 <0>         2.6795
      7 O3          4.9375   -2.3167   -4.5883 O.2       1 <0>        -0.9988
      8 O4          3.9540   -2.8327   -6.8176 O.2       1 <0>        -1.0004
      9 C3          3.9089   -0.4189   -5.9650 C.ar      1 <0>        -0.6312
     10 C4          3.4201    0.0048   -7.1879 C.ar      1 <0>        -0.0077
     11 C5          3.3973    1.3494   -7.4967 C.ar      1 <0>        -0.1839
     12 C6          3.8688    2.2824   -6.5725 C.ar      1 <0>         0.1033
     13 C7          4.3605    1.8485   -5.3409 C.ar      1 <0>        -0.1227
     14 C8          4.3729    0.5015   -5.0422 C.ar      1 <0>        -0.0040
     15 N2          3.8493    3.6209   -6.8736 N.2       1 <0>        -0.3062
     16 N3          3.1079    4.0547   -7.8361 N.2       1 <0>         0.1186
     17 N4          1.8157    3.5424   -8.0106 N.pl3     1 <0>        -0.5164
     18 C9          1.0180    3.8873   -9.1981 C.3       1 <0>         0.0998
     19 C10         0.4875    2.5895   -9.8177 C.3       1 <0>         0.0379
     20 O5         -0.1745    1.8225   -8.8091 O.3       1 <0>        -0.3734
     21 C11         0.6760    1.4058   -7.7382 C.3       1 <0>         0.0314
     22 C12         1.2184    2.6385   -7.0148 C.3       1 <0>         0.0378
     23 H1          0.5806   -2.1539   -3.1010 H         1 <0>         0.0522
     24 H2         -0.1222   -2.5226   -4.6942 H         1 <0>         0.0517
     25 H3         -0.7708   -3.3048   -3.2328 H         1 <0>         0.0757
     26 H4          3.0558   -0.7184   -7.9025 H         1 <0>         0.1428
     27 H5          3.0158    1.6789   -8.4518 H         1 <0>         0.1268
     28 H6          4.7271    2.5657   -4.6214 H         1 <0>         0.1401
     29 H7          4.7495    0.1646   -4.0877 H         1 <0>         0.1476
     30 H8          0.1823    4.5235   -8.9068 H         1 <0>         0.0880
     31 H9          1.6437    4.4105   -9.9212 H         1 <0>         0.1012
     32 H10        -0.2169    2.8279  -10.6147 H         1 <0>         0.1127
     33 H11         1.3187    2.0143  -10.2255 H         1 <0>         0.0563
     34 H12         0.1073    0.7927   -7.0391 H         1 <0>         0.1162
     35 H13         1.5079    0.8263   -8.1384 H         1 <0>         0.0749
     36 H14         1.9766    2.3351   -6.2928 H         1 <0>         0.1095
     37 H15         0.4031    3.1469   -6.4999 H         1 <0>         0.0900
@<TRIPOS>BOND
     1    1    2 1
     2    1   23 1
     3    1   24 1
     4    1   25 1
     5    2    3 1
     6    3    4 1
     7    3    5 2
     8    5    6 1
     9    6    7 2
    10    6    8 2
    11    6    9 1
    12    9   14 ar
    13    9   10 ar
    14   10   11 ar
    15   10   26 1
    16   11   12 ar
    17   11   27 1
    18   12   13 ar
    19   12   15 1
    20   13   14 ar
    21   13   28 1
    22   14   29 1
    23   15   16 2
    24   16   17 1
    25   17   22 1
    26   17   18 1
    27   18   19 1
    28   18   30 1
    29   18   31 1
    30   19   20 1
    31   19   32 1
    32   19   33 1
    33   20   21 1
    34   21   22 1
    35   21   34 1
    36   21   35 1
    37   22   36 1
    38   22   37 1
@<TRIPOS>MOLECULE
ZINC65383216
   43    45     0     0     0
SMALL
USER_CHARGES

@<TRIPOS>ATOM
      1 C1         -0.0184    1.5028    0.0103 C.3       1 <0>        -0.1201
      2 C2          0.0021   -0.0041    0.0020 C.2       1 <0>         0.1828
      3 C3          0.0080   -0.8237   -1.1409 C.2       1 <0>        -0.8491
      4 C4          0.0273   -2.1079   -0.7353 C.2       1 <0>         0.2207
      5 O1          0.0335   -2.1190    0.6064 O.3       1 <0>        -0.0770
      6 N1          0.0230   -0.7748    1.0524 N.2       1 <0>        -0.3131
      7 C5          0.0393   -3.3197   -1.6311 C.3       1 <0>        -0.1401
      8 S1         -0.0076   -0.2673   -2.8126 S.o2      1 <0>         2.7205
      9 O2         -0.5474   -1.3282   -3.5887 O.2       1 <0>        -0.9490
     10 O3         -0.5765    1.0348   -2.8020 O.2       1 <0>        -0.9456
     11 N2          1.5698   -0.0907   -3.2847 N.pl3     1 <0>        -0.9923
     12 C6          2.2700    1.1867   -3.0931 C.3       1 <0>         0.1166
     13 C7          2.8602    1.6315   -4.4350 C.3       1 <0>        -0.1294
     14 C8          3.7383    0.5116   -4.9979 C.3       1 <0>        -0.1156
     15 C9          2.8858   -0.7370   -5.2353 C.3       1 <0>        -0.1125
     16 H1          2.0776   -0.4995   -5.9271 H         1 <0>         0.0983
     17 C10         2.2977   -1.2104   -3.8974 C.3       1 <0>         0.1236
     18 C11         3.7575   -1.8451   -5.8294 C.3       1 <0>         0.1326
     19 N3          4.2270   -1.4387   -7.1563 N.pl3     1 <0>        -0.3749
     20 C12         5.5066   -1.3909   -7.5743 C.2       1 <0>         0.0429
     21 C13         5.4797   -0.9557   -8.8816 C.2       1 <0>        -0.0868
     22 N4          4.1965   -0.7494   -9.2296 N.2       1 <0>        -0.2013
     23 N5          3.4298   -1.0312   -8.2348 N.2       1 <0>        -0.1079
     24 C14         6.6518   -0.7515   -9.7472 C.2       1 <0>         0.5592
     25 O4          7.7757   -0.9731   -9.3174 O.co2     1 <0>        -0.6888
     26 O5          6.5026   -0.3600  -10.8967 O.co2     1 <0>        -0.6689
     27 H2          1.0042    1.8801    0.0026 H         1 <0>         0.0977
     28 H3         -0.5455    1.8639   -0.8728 H         1 <0>         0.1196
     29 H4         -0.5286    1.8543    0.9071 H         1 <0>         0.0913
     30 H5          1.0697   -3.5980   -1.8521 H         1 <0>         0.1133
     31 H6         -0.4610   -4.1477   -1.1290 H         1 <0>         0.1037
     32 H7         -0.4822   -3.0898   -2.5603 H         1 <0>         0.1366
     33 H8          1.5667    1.9389   -2.7359 H         1 <0>         0.0948
     34 H9          3.0718    1.0584   -2.3659 H         1 <0>         0.0717
     35 H10         2.0522    1.8466   -5.1343 H         1 <0>         0.0726
     36 H11         3.4631    2.5276   -4.2881 H         1 <0>         0.0801
     37 H12         4.1792    0.8350   -5.9409 H         1 <0>         0.0717
     38 H13         4.5315    0.2800   -4.2870 H         1 <0>         0.0670
     39 H14         3.1016   -1.5301   -3.2344 H         1 <0>         0.0761
     40 H15         1.6126   -2.0402   -4.0710 H         1 <0>         0.0982
     41 H16         4.6144   -2.0214   -5.1792 H         1 <0>         0.0984
     42 H17         3.1725   -2.7607   -5.9158 H         1 <0>         0.0922
     43 H18         6.3835   -1.6441   -6.9969 H         1 <0>         0.1902
@<TRIPOS>BOND
     1    1    2 1
     2    1   27 1
     3    1   28 1
     4    1   29 1
     5    2    6 2
     6    2    3 1
     7    3    4 2
     8    3    8 1
     9    4    5 1
    10    4    7 1
    11    5    6 1
    12    7   30 1
    13    7   31 1
    14    7   32 1
    15    8    9 2
    16    8   10 2
    17    8   11 1
    18   11   17 1
    19   11   12 1
    20   12   13 1
    21   12   33 1
    22   12   34 1
    23   13   14 1
    24   13   35 1
    25   13   36 1
    26   14   15 1
    27   14   37 1
    28   14   38 1
    29   15   16 1
    30   15   17 1
    31   15   18 1
    32   17   39 1
    33   17   40 1
    34   18   19 1
    35   18   41 1
    36   18   42 1
    37   19   23 1
    38   19   20 1
    39   20   21 2
    40   20   43 1
    41   21   22 1
    42   21   24 1
    43   22   23 2
    44   24   25 2
    45   24   26 1
@<TRIPOS>MOLECULE
ZINC66579658
   35    37     0     0     0
SMALL
USER_CHARGES

@<TRIPOS>ATOM
      1 C1          0.7620    1.0156   -0.7909 C.3       1 <0>        -0.1645
      2 C2          0.6310   -0.5034   -0.6632 C.3       1 <0>         0.1240
      3 N1         -0.7860   -0.8664   -0.5832 N.pl3     1 <0>        -0.3699
      4 C3         -1.4273   -1.7436   -1.3836 C.2       1 <0>         0.1658
      5 C4         -2.7193   -1.7971   -0.9851 C.2       1 <0>        -0.7567
      6 C5         -2.8730   -0.9227    0.0957 C.2       1 <0>         0.1308
      7 N2         -1.7133   -0.3688    0.3414 N.2       1 <0>        -0.3015
      8 S1         -3.9849   -2.7917   -1.7019 S.o2      1 <0>         2.6499
      9 O1         -5.2205   -2.1618   -1.3928 O.2       1 <0>        -1.0249
     10 O2         -3.5810   -3.0629   -3.0370 O.2       1 <0>        -1.0311
     11 N3         -3.9798   -4.2418   -0.9021 N.2       1 <0>        -1.0905
     12 C6         -4.8889   -5.2410   -1.2610 C.ar      1 <0>         0.3036
     13 C7         -5.7929   -5.0220   -2.2911 C.ar      1 <0>        -0.2477
     14 C8         -6.6912   -6.0107   -2.6442 C.ar      1 <0>        -0.0412
     15 C9         -6.6934   -7.2205   -1.9739 C.ar      1 <0>        -0.2086
     16 C10        -5.7963   -7.4478   -0.9461 C.ar      1 <0>         0.0332
     17 C11        -4.8864   -6.4625   -0.5890 C.ar      1 <0>         0.0524
     18 N4         -3.9709   -6.6927    0.4494 N.pl3     1 <0>        -0.2827
     19 C12        -3.7010   -5.8741    1.4841 C.2       1 <0>         0.2988
     20 N5         -2.7922   -6.4495    2.2298 N.2       1 <0>        -0.5690
     21 C13        -2.4590   -7.6289    1.7074 C.2       1 <0>         0.1750
     22 N6         -3.1583   -7.8254    0.6198 N.2       1 <0>        -0.3196
     23 Cl1        -5.8040   -8.9676   -0.1072 Cl        1 <0>        -0.0730
     24 H1          1.8163    1.2857   -0.8504 H         1 <0>         0.0745
     25 H2          0.2498    1.3498   -1.6932 H         1 <0>         0.0605
     26 H3          0.3131    1.4935    0.0799 H         1 <0>         0.0711
     27 H4          1.0799   -0.9813   -1.5340 H         1 <0>         0.0971
     28 H5          1.1432   -0.8377    0.2391 H         1 <0>         0.0874
     29 H6         -0.9880   -2.3024   -2.1967 H         1 <0>         0.1849
     30 H7         -3.7894   -0.7401    0.6372 H         1 <0>         0.1937
     31 H8         -5.7945   -4.0785   -2.8166 H         1 <0>         0.1145
     32 H9         -7.3940   -5.8382   -3.4458 H         1 <0>         0.1221
     33 H10        -7.3979   -7.9898   -2.2536 H         1 <0>         0.1248
     34 H11        -4.1545   -4.9110    1.6663 H         1 <0>         0.2115
     35 H12        -1.7323   -8.3141    2.1182 H         1 <0>         0.2050
@<TRIPOS>BOND
     1    1    2 1
     2    1   24 1
     3    1   25 1
     4    1   26 1
     5    2    3 1
     6    2   27 1
     7    2   28 1
     8    3    7 1
     9    3    4 1
    10    4    5 2
    11    4   29 1
    12    5    6 1
    13    5    8 1
    14    6    7 2
    15    6   30 1
    16    8    9 2
    17    8   10 2
    18    8   11 1
    19   11   12 1
    20   12   17 ar
    21   12   13 ar
    22   13   14 ar
    23   13   31 1
    24   14   15 ar
    25   14   32 1
    26   15   16 ar
    27   15   33 1
    28   16   17 ar
    29   16   23 1
    30   17   18 1
    31   18   22 1
    32   18   19 1
    33   19   20 2
    34   19   34 1
    35   20   21 1
    36   21   22 2
    37   21   35 1
@<TRIPOS>MOLECULE
ZINC37225624
   34    35     0     0     0
SMALL
USER_CHARGES

@<TRIPOS>ATOM
      1 C1         -0.0178    1.4608    0.0101 C.3       1 <0>         0.0909
      2 N1          0.0021   -0.0041    0.0020 N.am      1 <0>        -0.6204
      3 C2          1.2806   -0.7192   -0.0140 C.3       1 <0>         0.0716
      4 C3         -1.1558   -0.6938    0.0094 C.2       1 <0>         0.4991
      5 O1         -2.2142   -0.1017    0.0227 O.2       1 <0>        -0.5067
      6 C4         -1.1354   -2.2006    0.0011 C.3       1 <0>         0.0928
      7 N2         -2.5098   -2.7077    0.0115 N.pl3     1 <0>        -0.4525
      8 C5         -3.2760   -2.9941    1.1075 C.2       1 <0>         0.2062
      9 N3         -4.4297   -3.4174    0.6743 N.2       1 <0>        -0.2836
     10 N4         -4.4452   -3.4182   -0.6108 N.2       1 <0>        -0.3029
     11 C6         -3.2938   -2.9868   -1.0710 C.2       1 <0>         0.1712
     12 S1         -2.8441   -2.8054   -2.7649 S.3       1 <0>         0.0333
     13 C7         -4.3213   -3.3417   -3.6710 C.3       1 <0>        -0.1580
     14 C8         -4.0681   -3.2347   -5.1527 C.2       1 <0>         0.5162
     15 O2         -2.9910   -2.8339   -5.5598 O.co2     1 <0>        -0.6761
     16 O3         -4.9404   -3.5490   -5.9444 O.co2     1 <0>        -0.6753
     17 C9         -2.8624   -2.8478    2.5492 C.3       1 <0>        -0.0825
     18 C10        -3.8024   -3.4150    3.6149 C.3       1 <0>        -0.1488
     19 C11        -3.6834   -1.9012    3.4271 C.3       1 <0>        -0.1555
     20 H1          1.0048    1.8381    0.0023 H         1 <0>         0.0770
     21 H2         -0.5450    1.8219   -0.8730 H         1 <0>         0.0645
     22 H3         -0.5280    1.8123    0.9069 H         1 <0>         0.0606
     23 H4          1.6074   -0.9021    1.0096 H         1 <0>         0.0601
     24 H5          1.1583   -1.6705   -0.5318 H         1 <0>         0.0742
     25 H6          2.0272   -0.1171   -0.5318 H         1 <0>         0.0792
     26 H7         -0.6252   -2.5521   -0.8957 H         1 <0>         0.1292
     27 H8         -0.6082   -2.5617    0.8841 H         1 <0>         0.1232
     28 H9         -4.5488   -4.3765   -3.4150 H         1 <0>         0.0916
     29 H10        -5.1645   -2.7064   -3.3997 H         1 <0>         0.0914
     30 H11        -1.7908   -2.9082    2.7393 H         1 <0>         0.1171
     31 H12        -4.7200   -3.8939    3.2732 H         1 <0>         0.1099
     32 H13        -3.3493   -3.8487    4.5063 H         1 <0>         0.1020
     33 H14        -3.1520   -1.3390    4.1950 H         1 <0>         0.1006
     34 H15        -4.5227   -1.3842    2.9619 H         1 <0>         0.1004
@<TRIPOS>BOND
     1    1    2 1
     2    1   20 1
     3    1   21 1
     4    1   22 1
     5    2    3 1
     6    2    4 am
     7    3   23 1
     8    3   24 1
     9    3   25 1
    10    4    5 2
    11    4    6 1
    12    6    7 1
    13    6   26 1
    14    6   27 1
    15    7   11 1
    16    7    8 1
    17    8    9 2
    18    8   17 1
    19    9   10 1
    20   10   11 2
    21   11   12 1
    22   12   13 1
    23   13   14 1
    24   13   28 1
    25   13   29 1
    26   14   15 2
    27   14   16 1
    28   17   19 1
    29   17   18 1
    30   17   30 1
    31   18   19 1
    32   18   31 1
    33   18   32 1
    34   19   33 1
    35   19   34 1
@<TRIPOS>MOLECULE
ZINC38100528
   34    34     0     0     0
SMALL
USER_CHARGES

@<TRIPOS>ATOM
      1 C1          1.7149   -4.0710    1.7828 C.3       1 <0>         0.0333
      2 O1          1.0517   -3.3767    0.7245 O.3       1 <0>        -0.3478
      3 C2         -0.2905   -3.3805    0.7403 C.2       1 <0>         0.4792
      4 O2         -0.8827   -3.9543    1.6235 O.2       1 <0>        -0.5082
      5 C3         -1.0589   -2.6691   -0.3435 C.3       1 <0>        -0.1864
      6 C4         -2.5504   -2.9770   -0.1974 C.3       1 <0>         0.1762
      7 H1         -2.9207   -2.5555    0.7372 H         1 <0>         0.0888
      8 C5         -2.7640   -4.4939   -0.1969 C.3       1 <0>        -0.1475
      9 C6         -4.2647   -4.7938   -0.1908 C.3       1 <0>        -0.1114
     10 C7         -4.9072   -4.2160   -1.4539 C.3       1 <0>        -0.1387
     11 C8         -4.7179   -2.6959   -1.4687 C.3       1 <0>         0.1201
     12 N1         -3.2868   -2.3932   -1.3268 N.pl3     1 <0>        -1.0088
     13 S1         -2.5178   -1.4169   -2.4212 S.o2      1 <0>         2.6322
     14 O3         -3.5661   -0.7615   -3.1218 O.2       1 <0>        -0.9553
     15 O4         -1.5855   -0.6718   -1.6499 O.2       1 <0>        -0.9566
     16 C9         -1.6431   -2.5565   -3.5287 C.3       1 <0>        -0.6900
     17 C10        -0.9003   -1.7679   -4.5763 C.2       1 <0>         0.5203
     18 O5         -0.9559   -0.5500   -4.5758 O.co2     1 <0>        -0.6788
     19 O6         -0.2438   -2.3479   -5.4244 O.co2     1 <0>        -0.6684
     20 H2          2.7938   -3.9899    1.6505 H         1 <0>         0.1011
     21 H3          1.4320   -3.6312    2.7392 H         1 <0>         0.0599
     22 H4          1.4248   -5.1215    1.7660 H         1 <0>         0.0594
     23 H5         -0.8995   -1.5943   -0.2562 H         1 <0>         0.1743
     24 H6         -0.7114   -3.0099   -1.3188 H         1 <0>         0.1070
     25 H7         -2.3104   -4.9255   -1.0891 H         1 <0>         0.0636
     26 H8         -2.3031   -4.9259    0.6914 H         1 <0>         0.0970
     27 H9         -4.4194   -5.8725   -0.1656 H         1 <0>         0.0622
     28 H10        -4.7220   -4.3409    0.6889 H         1 <0>         0.0635
     29 H11        -4.4334   -4.6501   -2.3343 H         1 <0>         0.0674
     30 H12        -5.9717   -4.4501   -1.4603 H         1 <0>         0.0732
     31 H13        -5.0855   -2.2910   -2.4116 H         1 <0>         0.0971
     32 H14        -5.2672   -2.2512   -0.6388 H         1 <0>         0.0696
     33 H15        -0.9351   -3.1518   -2.9521 H         1 <0>         0.1250
     34 H16        -2.3628   -3.2165   -4.0131 H         1 <0>         0.1274
@<TRIPOS>BOND
     1    1    2 1
     2    1   20 1
     3    1   21 1
     4    1   22 1
     5    2    3 1
     6    3    4 2
     7    3    5 1
     8    5    6 1
     9    5   23 1
    10    5   24 1
    11    6    7 1
    12    6   12 1
    13    6    8 1
    14    8    9 1
    15    8   25 1
    16    8   26 1
    17    9   10 1
    18    9   27 1
    19    9   28 1
    20   10   11 1
    21   10   29 1
    22   10   30 1
    23   11   12 1
    24   11   31 1
    25   11   32 1
    26   12   13 1
    27   13   14 2
    28   13   15 2
    29   13   16 1
    30   16   17 1
    31   16   33 1
    32   16   34 1
    33   17   18 2
    34   17   19 1
@<TRIPOS>MOLECULE
ZINC48869636
   39    40     0     0     0
SMALL
USER_CHARGES

@<TRIPOS>ATOM
      1 C1         -0.0178    1.4608    0.0101 C.3       1 <0>         0.1058
      2 N1          0.0021   -0.0041    0.0020 N.pl3     1 <0>        -0.3857
      3 C2          0.0078   -0.7920   -1.0936 C.2       1 <0>         0.0457
      4 C3          0.0272   -2.0789   -0.6760 C.2       1 <0>        -0.2206
      5 C4          0.0335   -2.0775    0.7227 C.2       1 <0>         0.0513
      6 N2          0.0246   -0.8342    1.1302 N.2       1 <0>        -0.3079
      7 C5          0.0390   -3.2983   -1.5614 C.3       1 <0>        -0.0198
      8 C6          1.4853   -3.6917   -1.8684 C.3       1 <0>        -0.0763
      9 C7          1.4971   -4.9110   -2.7539 C.2       1 <0>         0.4852
     10 O1          2.6708   -5.4412   -3.1562 O.3       1 <0>        -0.7367
     11 N3          0.3848   -5.4481   -3.1273 N.2       1 <0>        -1.0694
     12 S1          0.3978   -6.7880   -4.1003 S.o2      1 <0>         2.7506
     13 O2          0.9368   -6.3776   -5.3494 O.2       1 <0>        -1.0288
     14 O3          0.9667   -7.8408   -3.3340 O.2       1 <0>        -1.0281
     15 N4         -1.1802   -7.2053   -4.3799 N.pl3     1 <0>        -0.9977
     16 C8         -1.8802   -8.1320   -3.4798 C.3       1 <0>         0.1292
     17 C9         -3.1793   -7.4725   -3.0063 C.3       1 <0>        -0.1340
     18 C10        -3.9994   -7.0385   -4.2233 C.3       1 <0>        -0.1123
     19 C11        -3.2056   -6.0131   -5.0361 C.3       1 <0>        -0.1341
     20 C12        -1.9087   -6.6513   -5.5292 C.3       1 <0>         0.1294
     21 H1          1.0048    1.8381    0.0023 H         1 <0>         0.0696
     22 H2         -0.5450    1.8219   -0.8730 H         1 <0>         0.0834
     23 H3         -0.5280    1.8123    0.9069 H         1 <0>         0.0838
     24 H4         -0.0017   -0.4556   -2.1198 H         1 <0>         0.1712
     25 H5          0.0482   -2.9516    1.3568 H         1 <0>         0.1815
     26 H6         -0.4613   -4.1220   -1.0521 H         1 <0>         0.0767
     27 H7         -0.4826   -3.0763   -2.4924 H         1 <0>         0.0733
     28 H8          1.9856   -2.8680   -2.3777 H         1 <0>         0.0718
     29 H9          2.0069   -3.9136   -0.9374 H         1 <0>         0.0742
     30 H10        -2.1117   -9.0542   -4.0129 H         1 <0>         0.0558
     31 H11        -1.2482   -8.3534   -2.6198 H         1 <0>         0.0849
     32 H12        -3.7546   -8.1851   -2.4153 H         1 <0>         0.0642
     33 H13        -2.9433   -6.6003   -2.3967 H         1 <0>         0.0731
     34 H14        -4.2139   -7.9075   -4.8453 H         1 <0>         0.0567
     35 H15        -4.9356   -6.5910   -3.8895 H         1 <0>         0.0572
     36 H16        -3.7997   -5.6870   -5.8899 H         1 <0>         0.0643
     37 H17        -2.9694   -5.1546   -4.4075 H         1 <0>         0.0725
     38 H18        -1.2955   -5.8961   -6.0210 H         1 <0>         0.0845
     39 H19        -2.1426   -7.4501   -6.2331 H         1 <0>         0.0553
@<TRIPOS>BOND
     1    1    2 1
     2    1   21 1
     3    1   22 1
     4    1   23 1
     5    2    6 1
     6    2    3 1
     7    3    4 2
     8    3   24 1
     9    4    5 1
    10    4    7 1
    11    5    6 2
    12    5   25 1
    13    7    8 1
    14    7   26 1
    15    7   27 1
    16    8    9 1
    17    8   28 1
    18    8   29 1
    19    9   10 1
    20    9   11 2
    21   11   12 1
    22   12   13 2
    23   12   14 2
    24   12   15 1
    25   15   20 1
    26   15   16 1
    27   16   17 1
    28   16   30 1
    29   16   31 1
    30   17   18 1
    31   17   32 1
    32   17   33 1
    33   18   19 1
    34   18   34 1
    35   18   35 1
    36   19   20 1
    37   19   36 1
    38   19   37 1
    39   20   38 1
    40   20   39 1
@<TRIPOS>MOLECULE
ZINC36967858
   33    33     0     0     0
SMALL
USER_CHARGES

@<TRIPOS>ATOM
      1 C1         -0.0225    1.8097    0.0120 C.3       1 <0>        -0.6744
      2 S1          0.0021   -0.0041    0.0020 S.o2      1 <0>         2.6106
      3 O1          0.8352   -0.4880    1.0465 O.2       1 <0>        -0.9539
      4 O2         -1.3147   -0.5105   -0.1678 O.2       1 <0>        -0.9535
      5 N1          0.7947   -0.4113   -1.3938 N.pl3     1 <0>        -0.9987
      6 C2          0.0519   -0.6007   -2.6477 C.3       1 <0>         0.1062
      7 C3          0.6527    0.3200   -3.7171 C.3       1 <0>         0.0972
      8 N2          2.1115    0.1422   -3.7242 N.am      1 <0>        -0.6163
      9 C4          2.8543    0.3316   -2.4703 C.3       1 <0>         0.0902
     10 C5          2.2542   -0.5837   -1.4021 C.3       1 <0>         0.1042
     11 C6          2.7566   -0.1892   -4.8602 C.2       1 <0>         0.5387
     12 O3          2.1329   -0.3433   -5.8889 O.2       1 <0>        -0.5066
     13 C7          4.2529   -0.3683   -4.8522 C.3       1 <0>        -0.1588
     14 S2          4.8181   -0.8084   -6.5188 S.3       1 <0>        -0.1325
     15 C8          6.6146   -0.9857   -6.3404 C.3       1 <0>        -0.1675
     16 C9          7.2175   -1.3554   -7.6712 C.2       1 <0>         0.5113
     17 O4          6.5016   -1.4871   -8.6493 O.co2     1 <0>        -0.6695
     18 O5          8.4211   -1.5228   -7.7697 O.co2     1 <0>        -0.6893
     19 H1          1.0001    2.1870    0.0043 H         1 <0>         0.1274
     20 H2         -0.5497    2.1708   -0.8711 H         1 <0>         0.1276
     21 H3         -0.5327    2.1613    0.9088 H         1 <0>         0.1277
     22 H4          0.1361   -1.6387   -2.9695 H         1 <0>         0.0829
     23 H5         -0.9968   -0.3468   -2.4936 H         1 <0>         0.1036
     24 H6          0.2475    0.0585   -4.6946 H         1 <0>         0.1085
     25 H7          0.4118    1.3572   -3.4840 H         1 <0>         0.0703
     26 H8          3.9030    0.0777   -2.6244 H         1 <0>         0.1016
     27 H9          2.7701    1.3696   -2.1485 H         1 <0>         0.0744
     28 H10         2.6594   -0.3185   -0.4256 H         1 <0>         0.1048
     29 H11         2.4988   -1.6204   -1.6332 H         1 <0>         0.0833
     30 H12         4.7285    0.5618   -4.5411 H         1 <0>         0.1001
     31 H13         4.5200   -1.1635   -4.1562 H         1 <0>         0.1007
     32 H14         7.0405   -0.0426   -5.9980 H         1 <0>         0.0748
     33 H15         6.8320   -1.7679   -5.6131 H         1 <0>         0.0750
@<TRIPOS>BOND
     1    1    2 1
     2    1   19 1
     3    1   20 1
     4    1   21 1
     5    2    3 2
     6    2    4 2
     7    2    5 1
     8    5   10 1
     9    5    6 1
    10    6    7 1
    11    6   22 1
    12    6   23 1
    13    7    8 1
    14    7   24 1
    15    7   25 1
    16    8    9 1
    17    8   11 am
    18    9   10 1
    19    9   26 1
    20    9   27 1
    21   10   28 1
    22   10   29 1
    23   11   12 2
    24   11   13 1
    25   13   14 1
    26   13   30 1
    27   13   31 1
    28   14   15 1
    29   15   16 1
    30   15   32 1
    31   15   33 1
    32   16   17 2
    33   16   18 1
@<TRIPOS>MOLECULE
ZINC63142316
   34    34     0     0     0
SMALL
USER_CHARGES

@<TRIPOS>ATOM
      1 C1         -0.0225    1.8097    0.0120 C.3       1 <0>        -0.6569
      2 S1          0.0021   -0.0041    0.0020 S.o2      1 <0>         2.4318
      3 O1          0.7981   -0.4488    1.0919 O.2       1 <0>        -0.9324
      4 O2         -1.3351   -0.4711   -0.1129 O.2       1 <0>        -0.9324
      5 C2          0.8774   -0.3845   -1.5406 C.3       1 <0>        -0.6097
      6 C3          0.9858   -1.9018   -1.7046 C.3       1 <0>        -0.6374
      7 S2          1.8611   -2.2822   -3.2473 S.o2      1 <0>         2.6184
      8 O3          1.0705   -1.9020   -4.3651 O.2       1 <0>        -0.9475
      9 O4          3.2204   -1.8795   -3.1508 O.2       1 <0>        -0.9467
     10 N1          1.9138   -3.9362   -3.3099 N.pl3     1 <0>        -0.9904
     11 C4          3.0353   -4.6727   -2.7112 C.3       1 <0>         0.1145
     12 C5          3.6322   -5.6069   -3.7684 C.3       1 <0>        -0.1056
     13 C6          2.5267   -6.4991   -4.3375 C.3       1 <0>        -0.1530
     14 C7          1.4612   -5.6291   -5.0081 C.3       1 <0>        -0.1070
     15 C8          0.8369   -4.6954   -3.9600 C.3       1 <0>         0.1161
     16 C9          3.1165   -7.4430   -5.3535 C.2       1 <0>         0.4963
     17 O5          2.7389   -8.6013   -5.4010 O.co2     1 <0>        -0.7035
     18 O6          3.9714   -7.0483   -6.1282 O.co2     1 <0>        -0.6962
     19 H1          1.0001    2.1870    0.0043 H         1 <0>         0.1315
     20 H2         -0.5497    2.1708   -0.8711 H         1 <0>         0.1315
     21 H3         -0.5327    2.1613    0.9088 H         1 <0>         0.1333
     22 H4          0.3268    0.0336   -2.3834 H         1 <0>         0.1477
     23 H5          1.8766    0.0498   -1.5080 H         1 <0>         0.1477
     24 H6          1.5364   -2.3199   -0.8619 H         1 <0>         0.1480
     25 H7         -0.0134   -2.3361   -1.7372 H         1 <0>         0.1480
     26 H8          3.7963   -3.9688   -2.3741 H         1 <0>         0.0884
     27 H9          2.6771   -5.2595   -1.8654 H         1 <0>         0.0668
     28 H10         4.0711   -5.0145   -4.5713 H         1 <0>         0.0734
     29 H11         4.4023   -6.2284   -3.3115 H         1 <0>         0.0674
     30 H12         2.0717   -7.0730   -3.5302 H         1 <0>         0.0619
     31 H13         1.9204   -5.0365   -5.7993 H         1 <0>         0.0678
     32 H14         0.6860   -6.2664   -5.4335 H         1 <0>         0.0705
     33 H15         0.3030   -5.2840   -3.2139 H         1 <0>         0.0687
     34 H16         0.1467   -4.0065   -4.4471 H         1 <0>         0.0890
@<TRIPOS>BOND
     1    1    2 1
     2    1   19 1
     3    1   20 1
     4    1   21 1
     5    2    3 2
     6    2    4 2
     7    2    5 1
     8    5    6 1
     9    5   22 1
    10    5   23 1
    11    6    7 1
    12    6   24 1
    13    6   25 1
    14    7    8 2
    15    7    9 2
    16    7   10 1
    17   10   15 1
    18   10   11 1
    19   11   12 1
    20   11   26 1
    21   11   27 1
    22   12   13 1
    23   12   28 1
    24   12   29 1
    25   13   14 1
    26   13   16 1
    27   13   30 1
    28   14   15 1
    29   14   31 1
    30   14   32 1
    31   15   33 1
    32   15   34 1
    33   16   17 2
    34   16   18 1
@<TRIPOS>MOLECULE
ZINC20320566
   36    37     0     0     0
SMALL
USER_CHARGES
1-[2-(4-methylsulfonylpiperazin-1-yl)-2-oxo-ethyl]pyrazole-3-carboxylic acid
@<TRIPOS>ATOM
      1 C1         -3.6756   10.5741    1.8190 C.3       1 <0>        -0.6768
      2 S1         -4.6018    9.3275    2.7563 S.o2      1 <0>         2.6103
      3 O1         -5.8815    9.1268    2.1720 O.2       1 <0>        -0.9552
      4 O2         -4.4718    9.5673    4.1509 O.2       1 <0>        -0.9535
      5 N1         -3.7902    7.9081    2.4941 N.pl3     1 <0>        -0.9993
      6 C2         -2.7014    7.4926    3.3895 C.3       1 <0>         0.1050
      7 C3         -1.4434    7.2434    2.5484 C.3       1 <0>         0.0960
      8 N2         -1.7993    6.3764    1.4164 N.am      1 <0>        -0.6163
      9 C4         -2.8844    6.7946    0.5178 C.3       1 <0>         0.0875
     10 C5         -4.1462    7.0410    1.3621 C.3       1 <0>         0.1032
     11 C6         -1.1388    5.2211    1.2030 C.2       1 <0>         0.5008
     12 O3         -0.2417    4.8889    1.9485 O.2       1 <0>        -0.4854
     13 C7         -1.5149    4.3422    0.0381 C.3       1 <0>         0.1112
     14 N3         -0.6561    3.1554    0.0245 N.pl3     1 <0>        -0.3046
     15 C8         -1.1010    1.8803    0.0167 C.2       1 <0>        -0.0480
     16 C9         -0.0126    1.0758    0.0080 C.2       1 <0>        -0.1960
     17 C10         1.1024    1.9478    0.0020 C.2       1 <0>         0.0120
     18 N4          0.6283    3.1781    0.0126 N.2       1 <0>        -0.2357
     19 C11         2.5248    1.5547   -0.0132 C.2       1 <0>         0.5309
     20 O4          2.8300    0.3788   -0.0221 O.co2     1 <0>        -0.6301
     21 O5          3.4849    2.4999   -0.0174 O.co2     1 <0>        -0.7431
     22 H1         -2.6878   10.7206    2.2804 H         1 <0>         0.1298
     23 H2         -4.2288   11.5248    1.8272 H         1 <0>         0.1293
     24 H3         -3.5485   10.2328    0.7811 H         1 <0>         0.1290
     25 H4         -2.5083    8.2872    4.1252 H         1 <0>         0.1055
     26 H5         -2.9899    6.5697    3.9139 H         1 <0>         0.0823
     27 H6         -1.0547    8.2030    2.1769 H         1 <0>         0.0732
     28 H7         -0.6785    6.7535    3.1689 H         1 <0>         0.1100
     29 H8         -2.5936    7.7189   -0.0028 H         1 <0>         0.0788
     30 H9         -3.0747    6.0021   -0.2209 H         1 <0>         0.0991
     31 H10        -4.5361    6.0848    1.7411 H         1 <0>         0.0835
     32 H11        -4.9160    7.5342    0.7504 H         1 <0>         0.1065
     33 H12        -2.5660    4.0331    0.1364 H         1 <0>         0.1247
     34 H13        -1.3832    4.9009   -0.9003 H         1 <0>         0.1152
     35 H14        -2.1329    1.5618    0.0191 H         1 <0>         0.1680
     36 H15         0.0021   -0.0041    0.0020 H         1 <0>         0.1521
@<TRIPOS>BOND
     1    1    2 1
     2    1   22 1
     3    1   23 1
     4    1   24 1
     5    2    3 2
     6    2    4 2
     7    2    5 1
     8    5   10 1
     9    5    6 1
    10    6    7 1
    11    6   25 1
    12    6   26 1
    13    7    8 1
    14    7   27 1
    15    7   28 1
    16    8    9 1
    17    8   11 am
    18    9   10 1
    19    9   29 1
    20    9   30 1
    21   10   31 1
    22   10   32 1
    23   11   12 2
    24   11   13 1
    25   13   14 1
    26   13   33 1
    27   13   34 1
    28   14   18 1
    29   14   15 1
    30   15   16 2
    31   15   35 1
    32   16   17 1
    33   16   36 1
    34   17   18 2
    35   17   19 1
    36   19   20 2
    37   19   21 1
@<TRIPOS>MOLECULE
ZINC37451899
   27    29     0     0     0
SMALL
USER_CHARGES

@<TRIPOS>ATOM
      1 C1         -0.0157    1.3747   -0.0436 C.2       1 <0>        -0.2053
      2 C2          1.1584    2.0492   -0.0437 C.2       1 <0>        -0.2542
      3 S1          2.3315    0.8491    0.0229 S.3       1 <0>         0.2120
      4 C3          1.2732   -0.5850    0.0523 C.2       1 <0>        -0.2190
      5 C4          0.0023   -0.0044    0.0058 C.2       1 <0>         0.1491
      6 N1         -1.1641   -0.7645    0.0095 N.am      1 <0>        -0.6221
      7 C5         -2.3627   -0.1591    0.1259 C.2       1 <0>         0.5786
      8 O1         -2.4326    1.0564    0.1328 O.2       1 <0>        -0.4699
      9 C6         -3.5786   -0.9619    0.2438 C.2       1 <0>        -0.2379
     10 C7         -4.9011   -0.5402    0.3664 C.2       1 <0>         0.1632
     11 C8         -5.8392   -1.5485    0.4586 C.2       1 <0>        -0.1920
     12 C9         -5.4254   -2.8371    0.4248 C.2       1 <0>        -0.2160
     13 S2         -3.7570   -2.7354    0.2603 S.3       1 <0>         0.3165
     14 N2         -5.2542    0.8141    0.3947 N.pl3     1 <0>        -0.3225
     15 C10        -6.4945    1.3363    0.5148 C.2       1 <0>         0.2117
     16 N3         -6.3711    2.6376    0.4967 N.2       1 <0>        -0.3334
     17 N4         -5.1378    2.9739    0.3734 N.2       1 <0>        -0.0634
     18 N5         -4.3936    1.9228    0.3104 N.2       1 <0>         0.0149
     19 C11         1.6258   -1.9485    0.1080 C.2       1 <0>         0.5047
     20 O2          2.9094   -2.3037    0.1473 O.co2     1 <0>        -0.6894
     21 O3          0.6754   -2.8823    0.1214 O.co2     1 <0>        -0.6991
     22 H1         -0.9537    1.9090   -0.0773 H         1 <0>         0.1792
     23 H2          1.3071    3.1183   -0.0787 H         1 <0>         0.1802
     24 H3         -1.1142   -1.7298   -0.0717 H         1 <0>         0.4278
     25 H4         -6.8886   -1.3127    0.5566 H         1 <0>         0.1491
     26 H5         -6.0316   -3.7288    0.4853 H         1 <0>         0.2034
     27 H6         -7.4166    0.7817    0.6080 H         1 <0>         0.2339
@<TRIPOS>BOND
     1    1    5 1
     2    1    2 2
     3    1   22 1
     4    2    3 1
     5    2   23 1
     6    3    4 1
     7    4    5 2
     8    4   19 1
     9    5    6 1
    10    6    7 am
    11    6   24 1
    12    7    8 2
    13    7    9 1
    14    9   13 1
    15    9   10 2
    16   10   11 1
    17   10   14 1
    18   11   12 2
    19   11   25 1
    20   12   13 1
    21   12   26 1
    22   14   18 1
    23   14   15 1
    24   15   16 2
    25   15   27 1
    26   16   17 1
    27   17   18 2
    28   19   20 2
    29   19   21 1
@<TRIPOS>MOLECULE
ZINC41035167
   40    41     0     0     0
SMALL
USER_CHARGES

@<TRIPOS>ATOM
      1 C1         -2.0762    0.7240    0.3216 C.3       1 <0>        -0.0775
      2 C2         -1.3021   -0.5563    0.1407 C.2       1 <0>         0.1368
      3 C3         -0.9985   -1.1634   -1.0811 C.2       1 <0>        -0.2851
      4 C4         -0.2892   -2.2958   -0.8188 C.2       1 <0>         0.4653
      5 N1         -0.1550   -2.3914    0.5236 N.pl3     1 <0>        -0.3527
      6 N2         -0.7943   -1.2866    1.1003 N.2       1 <0>        -0.2893
      7 C5          0.5398   -3.4595    1.2466 C.3       1 <0>         0.0458
      8 N3          0.2074   -3.1922   -1.7610 N.pl3     1 <0>        -0.6865
      9 C6          0.5226   -4.5679   -1.3683 C.3       1 <0>         0.0945
     10 C7         -0.6857   -5.1862   -0.6621 C.3       1 <0>        -0.1335
     11 C8         -1.8852   -5.1890   -1.6119 C.3       1 <0>        -0.1168
     12 C9         -1.5474   -6.0103   -2.8578 C.3       1 <0>        -0.1077
     13 C10        -0.3391   -5.3920   -3.5640 C.3       1 <0>        -0.0938
     14 H1         -0.5736   -4.3684   -3.8561 H         1 <0>         0.0649
     15 C11         0.8604   -5.3892   -2.6142 C.3       1 <0>        -0.0951
     16 C12        -0.0013   -6.2133   -4.8099 C.3       1 <0>        -0.1443
     17 C13         1.7041   -4.5652   -0.4329 C.2       1 <0>         0.4936
     18 O1          2.3483   -3.5434   -0.2675 O.co2     1 <0>        -0.6743
     19 O2          2.0157   -5.5848    0.1585 O.co2     1 <0>        -0.6826
     20 N4         -1.3801   -0.6643   -2.4215 N.pl3     1 <0>         0.0740
     21 O3         -0.6442    0.0859   -3.0193 O.2       1 <0>        -0.1594
     22 O4         -2.4276   -1.0069   -2.9185 O.3       1 <0>        -0.1560
     23 H2         -1.3880    1.5692    0.3112 H         1 <0>         0.0838
     24 H3         -2.7957    0.8313   -0.4901 H         1 <0>         0.0727
     25 H4         -2.6047    0.6974    1.2745 H         1 <0>         0.0837
     26 H5          1.5976   -3.2109    1.3334 H         1 <0>         0.1270
     27 H6          0.1084   -3.5648    2.2420 H         1 <0>         0.0615
     28 H7          0.4305   -4.3975    0.7022 H         1 <0>         0.1410
     29 H8          0.3449   -2.9058   -2.6775 H         1 <0>         0.4067
     30 H9         -0.4512   -6.2098   -0.3700 H         1 <0>         0.0862
     31 H10        -0.9263   -4.6011    0.2255 H         1 <0>         0.0667
     32 H11        -2.7460   -5.6295   -1.1087 H         1 <0>         0.0582
     33 H12        -2.1197   -4.1654   -1.9040 H         1 <0>         0.0618
     34 H13        -1.3129   -7.0339   -2.5656 H         1 <0>         0.0619
     35 H14        -2.4019   -6.0122   -3.5344 H         1 <0>         0.0590
     36 H15         1.7212   -4.9487   -3.1174 H         1 <0>         0.0643
     37 H16         1.0949   -6.4128   -2.3221 H         1 <0>         0.0849
     38 H17        -0.8558   -6.2152   -5.4865 H         1 <0>         0.0527
     39 H18         0.8595   -5.7728   -5.3130 H         1 <0>         0.0532
     40 H19         0.2332   -7.2369   -4.5177 H         1 <0>         0.0547
@<TRIPOS>BOND
     1    1    2 1
     2    1   23 1
     3    1   24 1
     4    1   25 1
     5    2    6 2
     6    2    3 1
     7    3    4 2
     8    3   20 1
     9    4    5 1
    10    4    8 1
    11    5    6 1
    12    5    7 1
    13    7   26 1
    14    7   27 1
    15    7   28 1
    16    8    9 1
    17    8   29 1
    18    9   15 1
    19    9   10 1
    20    9   17 1
    21   10   11 1
    22   10   30 1
    23   10   31 1
    24   11   12 1
    25   11   32 1
    26   11   33 1
    27   12   13 1
    28   12   34 1
    29   12   35 1
    30   13   14 1
    31   13   15 1
    32   13   16 1
    33   15   36 1
    34   15   37 1
    35   16   38 1
    36   16   39 1
    37   16   40 1
    38   17   18 2
    39   17   19 1
    40   20   21 2
    41   20   22 1
@<TRIPOS>MOLECULE
ZINC50265149
   32    33     0     0     0
SMALL
USER_CHARGES

@<TRIPOS>ATOM
      1 C1         -0.0178    1.4608    0.0101 C.3       1 <0>         0.0926
      2 N1          0.0021   -0.0041    0.0020 N.pl3     1 <0>        -0.3667
      3 C2          0.0078   -0.7920   -1.0936 C.2       1 <0>         0.1779
      4 C3          0.0272   -2.0789   -0.6760 C.2       1 <0>        -0.7692
      5 C4          0.0335   -2.0775    0.7227 C.2       1 <0>         0.1369
      6 N2          0.0246   -0.8342    1.1302 N.2       1 <0>        -0.2959
      7 S1          0.0410   -3.5046   -1.7112 S.o2      1 <0>         2.6442
      8 O1         -0.4917   -4.5722   -0.9393 O.2       1 <0>        -0.9882
      9 O2         -0.5215   -3.1090   -2.9547 O.2       1 <0>        -0.9944
     10 N3          1.6266   -3.8796   -2.0070 N.2       1 <0>        -1.0227
     11 C5          1.9278   -4.9126   -2.7614 C.2       1 <0>         0.5240
     12 C6          3.2857   -5.2388   -3.0111 C.2       1 <0>        -0.1859
     13 C7          3.5892   -6.3083   -3.7922 C.2       1 <0>        -0.0003
     14 C8          2.5602   -7.0834   -4.3469 C.2       1 <0>        -0.2158
     15 C9          1.2435   -6.7629   -4.1017 C.2       1 <0>         0.2240
     16 N4          0.9281   -5.6829   -3.3058 N.pl3     1 <0>        -0.6242
     17 C10         0.1742   -7.5765   -4.6841 C.2       1 <0>        -0.1517
     18 C11        -1.1217   -7.2638   -4.4447 C.2       1 <0>        -0.1177
     19 C12        -2.1564   -8.0511   -5.0083 C.2       1 <0>         0.4990
     20 O3         -1.8788   -9.0146   -5.7120 O.co2     1 <0>        -0.6809
     21 O4         -3.3285   -7.7683   -4.7919 O.co2     1 <0>        -0.6808
     22 H1          1.0048    1.8381    0.0023 H         1 <0>         0.0820
     23 H2         -0.5450    1.8219   -0.8730 H         1 <0>         0.0933
     24 H3         -0.5280    1.8123    0.9069 H         1 <0>         0.0943
     25 H4         -0.0017   -0.4556   -2.1198 H         1 <0>         0.1931
     26 H5          0.0482   -2.9516    1.3568 H         1 <0>         0.1990
     27 H6          4.0750   -4.6392   -2.5824 H         1 <0>         0.1596
     28 H7          4.6212   -6.5611   -3.9859 H         1 <0>         0.1470
     29 H8          2.8011   -7.9334   -4.9681 H         1 <0>         0.1566
     30 H9          0.4190   -8.4260   -5.3045 H         1 <0>         0.1638
     31 H10        -1.3665   -6.4143   -3.8243 H         1 <0>         0.0955
     32 H11        -0.0008   -5.4637   -3.1328 H         1 <0>         0.4115
@<TRIPOS>BOND
     1    1    2 1
     2    1   22 1
     3    1   23 1
     4    1   24 1
     5    2    6 1
     6    2    3 1
     7    3    4 2
     8    3   25 1
     9    4    5 1
    10    4    7 1
    11    5    6 2
    12    5   26 1
    13    7    8 2
    14    7    9 2
    15    7   10 1
    16   10   11 2
    17   11   16 1
    18   11   12 1
    19   12   13 2
    20   12   27 1
    21   13   14 1
    22   13   28 1
    23   14   15 2
    24   14   29 1
    25   15   16 1
    26   15   17 1
    27   16   32 1
    28   17   18 2
    29   17   30 1
    30   18   19 1
    31   18   31 1
    32   19   20 2
    33   19   21 1
@<TRIPOS>MOLECULE
ZINC62117886
   39    40     0     0     0
SMALL
USER_CHARGES

@<TRIPOS>ATOM
      1 C1         -0.0187    1.5258    0.0104 C.3       1 <0>        -0.1505
      2 C2          0.0021   -0.0041    0.0020 C.3       1 <0>        -0.1201
      3 C3          0.7182   -0.4975   -1.2568 C.3       1 <0>         0.1241
      4 C4          0.5551   -1.9967   -1.4101 C.2       1 <0>         0.5351
      5 O1          0.9347   -2.8567   -0.6446 O.2       1 <0>        -0.4600
      6 N1         -0.1005   -2.1747   -2.5741 N.am      1 <0>        -0.5602
      7 C5         -0.3714   -1.0085   -3.1712 C.2       1 <0>         0.7095
      8 O2         -0.9554   -0.9126   -4.2328 O.2       1 <0>        -0.5385
      9 N2          0.0753    0.0462   -2.4656 N.am      1 <0>        -0.7183
     10 C6         -0.4700   -3.4835   -3.1187 C.3       1 <0>         0.1039
     11 C7         -1.8376   -3.8687   -2.6163 C.2       1 <0>         0.5121
     12 O3         -2.4439   -3.1232   -1.8762 O.2       1 <0>        -0.5385
     13 N3         -2.3870   -5.0415   -2.9894 N.am      1 <0>        -0.6098
     14 C8         -1.7628   -6.0376   -3.8724 C.3       1 <0>         0.0925
     15 C9         -2.7668   -7.1981   -4.0358 C.3       1 <0>        -0.1086
     16 C10        -4.1259   -6.5328   -3.6927 C.3       1 <0>        -0.1664
     17 H1         -4.5319   -6.0058   -4.5561 H         1 <0>         0.0767
     18 C11        -3.7106   -5.5408   -2.5746 C.3       1 <0>         0.1318
     19 C12        -5.1091   -7.5496   -3.1726 C.2       1 <0>         0.5037
     20 O4         -4.7894   -8.7237   -3.0974 O.co2     1 <0>        -0.6900
     21 O5         -6.2242   -7.1980   -2.8271 O.co2     1 <0>        -0.6940
     22 C13         2.1991   -0.1152   -1.2165 C.3       1 <0>        -0.1467
     23 H2          1.0039    1.9031    0.0027 H         1 <0>         0.0614
     24 H3         -0.5459    1.8868   -0.8726 H         1 <0>         0.0569
     25 H4         -0.5289    1.8773    0.9072 H         1 <0>         0.0657
     26 H5          0.5293   -0.3651    0.8851 H         1 <0>         0.0893
     27 H6         -1.0205   -0.3814    0.0098 H         1 <0>         0.0789
     28 H7         -0.0097    0.9821   -2.7057 H         1 <0>         0.4383
     29 H8         -0.4838   -3.4333   -4.2074 H         1 <0>         0.1263
     30 H9          0.2579   -4.2290   -2.7985 H         1 <0>         0.1242
     31 H10        -1.5512   -5.5910   -4.8439 H         1 <0>         0.0659
     32 H11        -0.8407   -6.4057   -3.4225 H         1 <0>         0.0667
     33 H12        -2.7661   -7.5672   -5.0614 H         1 <0>         0.0748
     34 H13        -2.5436   -8.0027   -3.3351 H         1 <0>         0.0875
     35 H14        -3.6389   -6.0545   -1.6159 H         1 <0>         0.0674
     36 H15        -4.4239   -4.7189   -2.5132 H         1 <0>         0.0763
     37 H16         2.6676   -0.5679   -0.3426 H         1 <0>         0.0843
     38 H17         2.6919   -0.4745   -2.1199 H         1 <0>         0.0673
     39 H18         2.2930    0.9692   -1.1582 H         1 <0>         0.0812
@<TRIPOS>BOND
     1    1    2 1
     2    1   23 1
     3    1   24 1
     4    1   25 1
     5    2    3 1
     6    2   26 1
     7    2   27 1
     8    3    9 1
     9    3    4 1
    10    3   22 1
    11    4    5 2
    12    4    6 am
    13    6    7 am
    14    6   10 1
    15    7    8 2
    16    7    9 am
    17    9   28 1
    18   10   11 1
    19   10   29 1
    20   10   30 1
    21   11   12 2
    22   11   13 am
    23   13   18 1
    24   13   14 1
    25   14   15 1
    26   14   31 1
    27   14   32 1
    28   15   16 1
    29   15   33 1
    30   15   34 1
    31   16   17 1
    32   16   18 1
    33   16   19 1
    34   18   35 1
    35   18   36 1
    36   19   20 2
    37   19   21 1
    38   22   37 1
    39   22   38 1
    40   22   39 1
@<TRIPOS>MOLECULE
ZINC13256270
   50    52     0     0     0
SMALL
USER_CHARGES
(2S)-1-[2-(1-isobutylbenzimidazol-2-yl)sulfanylacetyl]piperidine-2-carboxylic acid
@<TRIPOS>ATOM
      1 C1          3.1973   -3.8817    0.4774 C.3       1 <0>        -0.1448
      2 C2          2.4551   -3.1316    1.5853 C.3       1 <0>        -0.1108
      3 C3          1.0916   -2.6721    1.0652 C.3       1 <0>        -0.1562
      4 C4          2.2568   -4.0599    2.7853 C.3       1 <0>         0.1109
      5 N1          1.6539   -3.3089    3.8892 N.pl3     1 <0>        -0.4712
      6 C5          2.3321   -2.6259    4.8856 C.ar      1 <0>         0.0523
      7 C6          3.6740   -2.4139    5.1632 C.ar      1 <0>        -0.1076
      8 C7          4.0376   -1.6593    6.2596 C.ar      1 <0>        -0.1094
      9 C8          3.0692   -1.1048    7.0833 C.ar      1 <0>        -0.1289
     10 C9          1.7320   -1.2993    6.8188 C.ar      1 <0>        -0.0691
     11 C10         1.3472   -2.0614    5.7127 C.ar      1 <0>         0.0598
     12 N2          0.1408   -2.4233    5.2030 N.2       1 <0>        -0.5029
     13 C11         0.3178   -3.1565    4.1314 C.2       1 <0>         0.2551
     14 S1         -0.9741   -3.8436    3.1498 S.3       1 <0>         0.0852
     15 C12        -2.4166   -3.2350    4.0580 C.3       1 <0>        -0.1379
     16 C13        -3.6751   -3.7130    3.3807 C.2       1 <0>         0.5122
     17 O1         -3.6037   -4.3976    2.3821 O.2       1 <0>        -0.4569
     18 N3         -4.8798   -3.3796    3.8845 N.am      1 <0>        -0.5947
     19 C14        -4.9846   -2.6695    5.1665 C.3       1 <0>         0.1053
     20 C15        -5.8323   -1.4055    4.9570 C.3       1 <0>        -0.1326
     21 C16        -7.1787   -1.7971    4.3439 C.3       1 <0>        -0.1176
     22 C17        -6.9488   -2.4538    2.9808 C.3       1 <0>        -0.1176
     23 C18        -6.1136   -3.7247    3.1652 C.3       1 <0>         0.1012
     24 H1         -6.6800   -4.4563    3.7413 H         1 <0>         0.0685
     25 C19        -5.7676   -4.3019    1.8167 C.2       1 <0>         0.4876
     26 O2         -5.1602   -3.6357    1.0123 O.co2     1 <0>        -0.6223
     27 H2          2.6133   -4.7501    0.1724 H         1 <0>         0.0625
     28 H3          3.3386   -3.2204   -0.3775 H         1 <0>         0.0634
     29 H4          4.1687   -4.2091    0.8480 H         1 <0>         0.0551
     30 H5          3.0391   -2.2632    1.8903 H         1 <0>         0.0739
     31 H6          0.5629   -2.1377    1.8545 H         1 <0>         0.0597
     32 H7          1.2329   -2.0108    0.2103 H         1 <0>         0.0598
     33 H8          0.5076   -3.5405    0.7601 H         1 <0>         0.0689
     34 H9          1.5994   -4.8824    2.5036 H         1 <0>         0.0985
     35 H10         3.2216   -4.4574    3.1005 H         1 <0>         0.0918
     36 H11         4.4329   -2.8426    4.5255 H         1 <0>         0.1190
     37 H12         5.0832   -1.4990    6.4776 H         1 <0>         0.1270
     38 H13         3.3662   -0.5157    7.9384 H         1 <0>         0.1270
     39 H14         0.9832   -0.8647    7.4643 H         1 <0>         0.1274
     40 H15        -2.3882   -3.6127    5.0801 H         1 <0>         0.1174
     41 H16        -2.4034   -2.1452    4.0729 H         1 <0>         0.1195
     42 H17        -5.4621   -3.3150    5.9037 H         1 <0>         0.0664
     43 H18        -3.9892   -2.3905    5.5121 H         1 <0>         0.0803
     44 H19        -5.3117   -0.7225    4.2857 H         1 <0>         0.0665
     45 H20        -5.9981   -0.9163    5.9169 H         1 <0>         0.0691
     46 H21        -7.7936   -0.9058    4.2185 H         1 <0>         0.0604
     47 H22        -7.6876   -2.4994    5.0041 H         1 <0>         0.0606
     48 H23        -6.4177   -1.7609    2.3281 H         1 <0>         0.0707
     49 H24        -7.9093   -2.7112    2.5344 H         1 <0>         0.0687
     50 O3         -6.1342   -5.5560    1.5094 O.co2     1 <0>        -0.7712
@<TRIPOS>BOND
     1    1    2 1
     2    1   27 1
     3    1   28 1
     4    1   29 1
     5    2    3 1
     6    2    4 1
     7    2   30 1
     8    3   31 1
     9    3   32 1
    10    3   33 1
    11    4    5 1
    12    4   34 1
    13    4   35 1
    14    5   13 1
    15    5    6 1
    16    6   11 ar
    17    6    7 ar
    18    7    8 ar
    19    7   36 1
    20    8    9 ar
    21    8   37 1
    22    9   10 ar
    23    9   38 1
    24   10   11 ar
    25   10   39 1
    26   11   12 1
    27   12   13 2
    28   13   14 1
    29   14   15 1
    30   15   16 1
    31   15   40 1
    32   15   41 1
    33   16   17 2
    34   16   18 am
    35   18   23 1
    36   18   19 1
    37   19   20 1
    38   19   42 1
    39   19   43 1
    40   20   21 1
    41   20   44 1
    42   20   45 1
    43   21   22 1
    44   21   46 1
    45   21   47 1
    46   22   23 1
    47   22   48 1
    48   22   49 1
    49   23   24 1
    50   23   25 1
    51   25   26 2
    52   25   50 1
@<TRIPOS>MOLECULE
ZINC39549732
   52    55     0     0     0
SMALL
USER_CHARGES

@<TRIPOS>ATOM
      1 C1         -0.6216    1.2263   -0.4623 C.3       1 <0>        -0.1225
      2 C2         -0.3486   -0.2411   -0.2546 C.ar      1 <0>        -0.0352
      3 C3         -0.5636   -1.1368   -1.2853 C.ar      1 <0>        -0.1420
      4 C4         -0.3131   -2.4829   -1.0948 C.ar      1 <0>        -0.0142
      5 C5          0.1527   -2.9332    0.1263 C.ar      1 <0>        -0.6808
      6 C6          0.3686   -2.0373    1.1567 C.ar      1 <0>        -0.0168
      7 C7          0.1222   -0.6907    0.9649 C.ar      1 <0>        -0.1438
      8 S1          0.4709   -4.6490    0.3695 S.o2      1 <0>         2.6853
      9 O1          0.3804   -4.8847    1.7679 O.2       1 <0>        -0.9573
     10 O2         -0.3292   -5.3482   -0.5742 O.2       1 <0>        -0.9460
     11 N1          2.0485   -4.9195   -0.0550 N.pl3     1 <0>        -0.9655
     12 C8          3.1078   -4.8030    0.9502 C.3       1 <0>         0.1691
     13 C9          3.3038   -6.1336    1.6300 C.ar      1 <0>        -0.1654
     14 C10         2.4791   -6.5151    2.6776 C.ar      1 <0>        -0.0598
     15 C11         2.6963   -7.7480    3.2730 C.ar      1 <0>        -0.1883
     16 C12         3.7204   -8.5504    2.8060 C.ar      1 <0>         0.1011
     17 N2          4.4855   -8.1548    1.8076 N.ar      1 <0>        -0.4842
     18 C13         4.3039   -6.9914    1.2136 C.ar      1 <0>         0.1401
     19 C14         2.3849   -5.2752   -1.4358 C.3       1 <0>         0.1297
     20 H1          1.4956   -5.2340   -2.0646 H         1 <0>         0.1085
     21 C15         3.4715   -4.3316   -1.9824 C.3       1 <0>        -0.1838
     22 C16         4.6321   -5.2462   -2.3053 C.2       1 <0>         0.4000
     23 O3          5.7023   -4.9010   -2.7637 O.2       1 <0>        -0.5361
     24 C17         4.2606   -6.5670   -1.9830 C.2       1 <0>        -0.4762
     25 C18         3.0020   -6.6526   -1.4880 C.2       1 <0>         0.3281
     26 O4          2.3944   -7.7891   -1.1009 O.3       1 <0>        -0.6198
     27 C19         5.1515   -7.7391   -2.1672 C.ar      1 <0>         0.0667
     28 C20         5.4150   -8.5923   -1.0973 C.ar      1 <0>        -0.1356
     29 C21         6.2441   -9.6813   -1.2745 C.ar      1 <0>        -0.1231
     30 C22         6.8135   -9.9264   -2.5110 C.ar      1 <0>        -0.1603
     31 C23         6.5558   -9.0826   -3.5764 C.ar      1 <0>        -0.1308
     32 C24         5.7233   -7.9941   -3.4121 C.ar      1 <0>        -0.1272
     33 H2          0.2787    1.7141   -0.8360 H         1 <0>         0.0780
     34 H3         -1.4274    1.3470   -1.1863 H         1 <0>         0.0710
     35 H4         -0.9136    1.6792    0.4852 H         1 <0>         0.0706
     36 H5         -0.9276   -0.7850   -2.2394 H         1 <0>         0.1314
     37 H6         -0.4818   -3.1827   -1.8999 H         1 <0>         0.1399
     38 H7          0.7322   -2.3892    2.1108 H         1 <0>         0.1393
     39 H8          0.2944    0.0097    1.7687 H         1 <0>         0.1305
     40 H9          4.0368   -4.5021    0.4659 H         1 <0>         0.0969
     41 H10         2.8253   -4.0548    1.6908 H         1 <0>         0.0869
     42 H11         1.6867   -5.8669    3.0216 H         1 <0>         0.1541
     43 H12         2.0735   -8.0773    4.0916 H         1 <0>         0.1273
     44 H13         3.8962   -9.5124    3.2645 H         1 <0>         0.1474
     45 H14         4.9473   -6.7038    0.3953 H         1 <0>         0.1645
     46 H15         3.1210   -3.8279   -2.8833 H         1 <0>         0.0895
     47 H16         3.7582   -3.6014   -1.2256 H         1 <0>         0.0921
     48 H17         4.9715   -8.4015   -0.1312 H         1 <0>         0.1497
     49 H18         6.4489  -10.3432   -0.4460 H         1 <0>         0.1055
     50 H19         7.4619  -10.7796   -2.6451 H         1 <0>         0.1021
     51 H20         7.0033   -9.2785   -4.5396 H         1 <0>         0.1034
     52 H21         5.5190   -7.3386   -4.2458 H         1 <0>         0.1063
@<TRIPOS>BOND
     1    1    2 1
     2    1   33 1
     3    1   34 1
     4    1   35 1
     5    2    7 ar
     6    2    3 ar
     7    3    4 ar
     8    3   36 1
     9    4    5 ar
    10    4   37 1
    11    5    6 ar
    12    5    8 1
    13    6    7 ar
    14    6   38 1
    15    7   39 1
    16    8    9 2
    17    8   10 2
    18    8   11 1
    19   11   12 1
    20   11   19 1
    21   12   13 1
    22   12   40 1
    23   12   41 1
    24   13   18 ar
    25   13   14 ar
    26   14   15 ar
    27   14   42 1
    28   15   16 ar
    29   15   43 1
    30   16   17 ar
    31   16   44 1
    32   17   18 ar
    33   18   45 1
    34   19   20 1
    35   19   21 1
    36   19   25 1
    37   21   46 1
    38   21   47 1
    39   21   22 1
    40   22   24 1
    41   22   23 2
    42   24   27 1
    43   24   25 2
    44   25   26 1
    45   27   32 ar
    46   27   28 ar
    47   28   29 ar
    48   28   48 1
    49   29   30 ar
    50   29   49 1
    51   30   31 ar
    52   30   50 1
    53   31   32 ar
    54   31   51 1
    55   32   52 1
@<TRIPOS>MOLECULE
ZINC50923013
   37    38     0     0     0
SMALL
USER_CHARGES

@<TRIPOS>ATOM
      1 C1          0.4356    1.4152   -0.0728 C.ar      1 <0>         0.0527
      2 C2          1.4925    2.3091   -0.1524 C.ar      1 <0>        -0.7318
      3 C3          2.7749    1.8227   -0.3215 C.ar      1 <0>         0.2223
      4 N1          2.9992    0.5259   -0.4069 N.ar      1 <0>        -0.4770
      5 C4          2.0195   -0.3536   -0.3354 C.ar      1 <0>         0.1829
      6 C5          0.7100    0.0587   -0.1666 C.ar      1 <0>        -0.1781
      7 Br1        -0.6881   -1.2105   -0.0646 Br        1 <0>        -0.0285
      8 S1          1.2041    4.0437   -0.0401 S.o2      1 <0>         2.6856
      9 O1          2.3713    4.6826   -0.5386 O.2       1 <0>        -0.9153
     10 O2         -0.0856    4.2773   -0.5890 O.2       1 <0>        -0.9622
     11 N2          1.1088    4.4210    1.5696 N.pl3     1 <0>        -0.9892
     12 C6         -0.1964    4.5766    2.2260 C.3       1 <0>         0.1137
     13 C7         -0.2375    5.9393    2.9248 C.3       1 <0>        -0.1300
     14 C8          0.9599    6.0594    3.8703 C.3       1 <0>        -0.1181
     15 C9          2.2586    5.9681    3.0658 C.3       1 <0>        -0.1266
     16 C10         2.3279    4.6004    2.3698 C.3       1 <0>         0.1486
     17 H1          2.3939    3.8098    3.1174 H         1 <0>         0.0724
     18 C11         3.5537    4.5494    1.4556 C.3       1 <0>        -0.1285
     19 C12         4.8255    4.6103    2.3040 C.3       1 <0>        -0.1795
     20 C13         6.0304    4.4348    1.4161 C.2       1 <0>         0.4889
     21 O3          5.8854    4.2758    0.2160 O.co2     1 <0>        -0.6879
     22 O4          7.1503    4.4519    1.8979 O.co2     1 <0>        -0.7093
     23 H2         -0.5765    1.7664    0.0637 H         1 <0>         0.1559
     24 H3          3.6033    2.5128   -0.3847 H         1 <0>         0.2013
     25 H4          2.2420   -1.4078   -0.4094 H         1 <0>         0.1722
     26 H5         -0.9892    4.5247    1.4798 H         1 <0>         0.0935
     27 H6         -0.3321    3.7842    2.9620 H         1 <0>         0.0673
     28 H7         -0.1927    6.7324    2.1785 H         1 <0>         0.0687
     29 H8         -1.1619    6.0278    3.4955 H         1 <0>         0.0729
     30 H9          0.9196    7.0182    4.3873 H         1 <0>         0.0637
     31 H10         0.9280    5.2514    4.6012 H         1 <0>         0.0620
     32 H11         2.2798    6.7610    2.3181 H         1 <0>         0.0712
     33 H12         3.1106    6.0772    3.7367 H         1 <0>         0.0801
     34 H13         3.5423    3.6213    0.8841 H         1 <0>         0.0610
     35 H14         3.5323    5.3977    0.7715 H         1 <0>         0.1102
     36 H15         4.8815    5.5763    2.8058 H         1 <0>         0.0612
     37 H16         4.8039    3.8146    3.0487 H         1 <0>         0.0533
@<TRIPOS>BOND
     1    1    6 ar
     2    1    2 ar
     3    1   23 1
     4    2    3 ar
     5    2    8 1
     6    3    4 ar
     7    3   24 1
     8    4    5 ar
     9    5    6 ar
    10    5   25 1
    11    6    7 1
    12    8    9 2
    13    8   10 2
    14    8   11 1
    15   11   16 1
    16   11   12 1
    17   12   13 1
    18   12   26 1
    19   12   27 1
    20   13   14 1
    21   13   28 1
    22   13   29 1
    23   14   15 1
    24   14   30 1
    25   14   31 1
    26   15   16 1
    27   15   32 1
    28   15   33 1
    29   16   17 1
    30   16   18 1
    31   18   19 1
    32   18   34 1
    33   18   35 1
    34   19   20 1
    35   19   36 1
    36   19   37 1
    37   20   21 2
    38   20   22 1
@<TRIPOS>MOLECULE
ZINC62031987
   35    35     0     0     0
SMALL
USER_CHARGES

@<TRIPOS>ATOM
      1 C1         -0.0178    1.4608    0.0101 C.3       1 <0>         0.0782
      2 N1          0.0021   -0.0041    0.0020 N.pl3     1 <0>        -0.9962
      3 C2          0.0241   -0.7433    1.2666 C.3       1 <0>         0.1268
      4 C3         -1.4059   -0.9117    1.7840 C.3       1 <0>        -0.1415
      5 C4         -1.3829   -1.6837    3.1047 C.3       1 <0>         0.0636
      6 O1         -2.7185   -1.8410    3.5879 O.3       1 <0>        -0.3920
      7 C5         -2.8095   -2.5528    4.8236 C.3       1 <0>         0.0316
      8 S1         -0.0004   -0.8243   -1.4366 S.o2      1 <0>         2.6975
      9 O2         -0.5312   -2.1147   -1.1675 O.2       1 <0>        -0.9523
     10 O3         -0.5723    0.0488   -2.4009 O.2       1 <0>        -0.9424
     11 C6          1.6818   -1.0594   -1.9051 C.ar      1 <0>        -0.7332
     12 C7          2.2063   -2.3365   -1.9750 C.ar      1 <0>         0.0233
     13 C8          3.5277   -2.5318   -2.3424 C.ar      1 <0>        -0.1378
     14 C9          4.3319   -1.4518   -2.6413 C.ar      1 <0>         0.0232
     15 C10         3.8110   -0.1565   -2.5735 C.ar      1 <0>        -0.1804
     16 C11         2.4729    0.0335   -2.2075 C.ar      1 <0>         0.2433
     17 F1          1.9582    1.2810   -2.1443 F         1 <0>        -0.0946
     18 C12         4.6639    1.0024   -2.8909 C.2       1 <0>         0.5237
     19 O4          5.8311    0.8324   -3.2147 O.co2     1 <0>        -0.6734
     20 O5          4.2047    2.1345   -2.8305 O.co2     1 <0>        -0.6626
     21 Br1         4.2313   -4.2846   -2.4338 Br        1 <0>        -0.0470
     22 H1          1.0048    1.8381    0.0023 H         1 <0>         0.0653
     23 H2         -0.5450    1.8219   -0.8730 H         1 <0>         0.0870
     24 H3         -0.5280    1.8123    0.9069 H         1 <0>         0.0781
     25 H4          0.4703   -1.7247    1.1061 H         1 <0>         0.0851
     26 H5          0.6131   -0.1919    1.9996 H         1 <0>         0.0853
     27 H6         -1.8521    0.0698    1.9445 H         1 <0>         0.0777
     28 H7         -1.9949   -1.4631    1.0510 H         1 <0>         0.0811
     29 H8         -0.9367   -2.6651    2.9441 H         1 <0>         0.0539
     30 H9         -0.7939   -1.1323    3.8376 H         1 <0>         0.0514
     31 H10        -2.2501   -2.0195    5.5922 H         1 <0>         0.0404
     32 H11        -3.8549   -2.6297    5.1225 H         1 <0>         0.0847
     33 H12        -2.3929   -3.5523    4.6987 H         1 <0>         0.0416
     34 H13         1.5825   -3.1867   -1.7417 H         1 <0>         0.1551
     35 H14         5.3619   -1.6066   -2.9268 H         1 <0>         0.1556
@<TRIPOS>BOND
     1    1    2 1
     2    1   22 1
     3    1   23 1
     4    1   24 1
     5    2    3 1
     6    2    8 1
     7    3    4 1
     8    3   25 1
     9    3   26 1
    10    4    5 1
    11    4   27 1
    12    4   28 1
    13    5    6 1
    14    5   29 1
    15    5   30 1
    16    6    7 1
    17    7   31 1
    18    7   32 1
    19    7   33 1
    20    8    9 2
    21    8   10 2
    22    8   11 1
    23   11   16 ar
    24   11   12 ar
    25   12   13 ar
    26   12   34 1
    27   13   14 ar
    28   13   21 1
    29   14   15 ar
    30   14   35 1
    31   15   16 ar
    32   15   18 1
    33   16   17 1
    34   18   19 2
    35   18   20 1
@<TRIPOS>MOLECULE
ZINC66004325
   35    35     0     0     0
SMALL
USER_CHARGES

@<TRIPOS>ATOM
      1 C1         -0.0173    1.4248    0.0099 C.3       1 <0>         0.0313
      2 O1          0.0021   -0.0041    0.0020 O.3       1 <0>        -0.3813
      3 C2         -1.2953   -0.6030    0.0112 C.3       1 <0>         0.0633
      4 C3         -1.1538   -2.1264    0.0017 C.3       1 <0>         0.0623
      5 O2         -0.5312   -2.5546    1.2145 O.3       1 <0>        -0.3779
      6 C4         -0.3510   -3.9691    1.3075 C.3       1 <0>         0.0584
      7 C5          0.3203   -4.3113    2.6391 C.3       1 <0>        -0.0961
      8 C6          0.5132   -5.8258    2.7386 C.3       1 <0>        -0.0789
      9 C7          1.1744   -6.1629    4.0502 C.2       1 <0>         0.4889
     10 O3          1.4454   -7.4482    4.3584 O.3       1 <0>        -0.7288
     11 N1          1.4814   -5.2223    4.8785 N.2       1 <0>        -1.0459
     12 S1          2.2080   -5.5927    6.3197 S.o2      1 <0>         2.6497
     13 O4          1.2556   -6.3255    7.0781 O.2       1 <0>        -1.0000
     14 O5          3.4931   -6.1110    6.0053 O.2       1 <0>        -0.9891
     15 C8          2.4726   -4.0750    7.1749 C.2       1 <0>        -0.6521
     16 C9          1.8196   -3.8175    8.3670 C.2       1 <0>        -0.0597
     17 C10         2.0466   -2.6395    8.9993 C.2       1 <0>        -0.1362
     18 S2          3.2128   -1.8497    7.9023 S.3       1 <0>         0.1512
     19 C11         3.3237   -3.1438    6.6776 C.2       1 <0>         0.0022
     20 Cl1         4.2737   -3.1959    5.2256 Cl        1 <0>         0.0602
     21 Cl2         1.3765   -2.0517   10.4889 Cl        1 <0>         0.0182
     22 H1          1.0053    1.8021    0.0021 H         1 <0>         0.0850
     23 H2         -0.5445    1.7859   -0.8732 H         1 <0>         0.0371
     24 H3         -0.5275    1.7763    0.9067 H         1 <0>         0.0411
     25 H4         -1.8320   -0.2936    0.9080 H         1 <0>         0.0577
     26 H5         -1.8490   -0.2840   -0.8718 H         1 <0>         0.0597
     27 H6         -2.1404   -2.5824   -0.0809 H         1 <0>         0.0610
     28 H7         -0.5414   -2.4291   -0.8477 H         1 <0>         0.0543
     29 H8         -1.3210   -4.4634    1.2520 H         1 <0>         0.0435
     30 H9          0.2781   -4.3101    0.4852 H         1 <0>         0.0446
     31 H10         1.2902   -3.8171    2.6946 H         1 <0>         0.0788
     32 H11        -0.3088   -3.9704    3.4613 H         1 <0>         0.0775
     33 H12        -0.4567   -6.3201    2.6831 H         1 <0>         0.0783
     34 H13         1.1423   -6.1668    1.9164 H         1 <0>         0.0786
     35 H14         1.1393   -4.5433    8.7874 H         1 <0>         0.1631
@<TRIPOS>BOND
     1    1    2 1
     2    1   22 1
     3    1   23 1
     4    1   24 1
     5    2    3 1
     6    3    4 1
     7    3   25 1
     8    3   26 1
     9    4    5 1
    10    4   27 1
    11    4   28 1
    12    5    6 1
    13    6    7 1
    14    6   29 1
    15    6   30 1
    16    7    8 1
    17    7   31 1
    18    7   32 1
    19    8    9 1
    20    8   33 1
    21    8   34 1
    22    9   10 1
    23    9   11 2
    24   11   12 1
    25   12   13 2
    26   12   14 2
    27   12   15 1
    28   15   19 2
    29   15   16 1
    30   16   17 2
    31   16   35 1
    32   17   18 1
    33   17   21 1
    34   18   19 1
    35   19   20 1
@<TRIPOS>MOLECULE
ZINC11891175
   52    54     0     0     0
SMALL
USER_CHARGES
(3S)-1-[2-[3-methoxy-2-(p-tolylmethoxy)phenyl]ethyl]-5-oxo-pyrrolidine-3-carboxylic acid
@<TRIPOS>ATOM
      1 C1          6.0162    4.2881   -6.0403 C.3       1 <0>        -0.1163
      2 C2          6.2683    4.7767   -4.6372 C.ar      1 <0>        -0.0788
      3 C3          5.2042    5.0295   -3.7917 C.ar      1 <0>        -0.1202
      4 C4          5.4355    5.4768   -2.5044 C.ar      1 <0>        -0.0882
      5 C5          6.7308    5.6709   -2.0623 C.ar      1 <0>        -0.0969
      6 C6          7.7946    5.4231   -2.9094 C.ar      1 <0>        -0.0912
      7 C7          7.5635    4.9716   -4.1954 C.ar      1 <0>        -0.1270
      8 C8          6.9829    6.1585   -0.6588 C.3       1 <0>         0.1096
      9 O1          7.1049    5.0382    0.2199 O.3       1 <0>        -0.3092
     10 C9          7.3361    5.3059    1.5331 C.ar      1 <0>         0.0684
     11 C10         6.2725    5.4722    2.4055 C.ar      1 <0>        -0.0541
     12 C11         6.5091    5.7504    3.7388 C.ar      1 <0>        -0.1371
     13 C12         7.8059    5.8520    4.2073 C.ar      1 <0>        -0.0820
     14 C13         8.8715    5.6872    3.3423 C.ar      1 <0>        -0.2044
     15 C14         8.6412    5.4139    2.0035 C.ar      1 <0>         0.1113
     16 O2          9.6885    5.2510    1.1513 O.3       1 <0>        -0.3060
     17 C15        11.0003    5.3758    1.7041 C.3       1 <0>         0.0257
     18 C16         4.8577    5.3560    1.8996 C.3       1 <0>        -0.0915
     19 C17         4.4359    3.8853    1.8978 C.3       1 <0>         0.1387
     20 N1          3.0606    3.7722    1.4060 N.am      1 <0>        -0.6065
     21 C18         2.6978    3.5908   -0.0044 C.3       1 <0>         0.1173
     22 C19         1.2350    3.0943    0.0069 C.3       1 <0>        -0.1442
     23 H1          0.6759    3.5086   -0.8321 H         1 <0>         0.0953
     24 C20         0.7199    3.6614    1.3501 C.3       1 <0>        -0.1354
     25 C21         1.9688    3.8209    2.1887 C.2       1 <0>         0.5224
     26 O3          1.9830    3.9710    3.3921 O.2       1 <0>        -0.5507
     27 C22         1.1765    1.5884   -0.0006 C.2       1 <0>         0.4690
     28 O4          2.1986    0.9442   -0.0139 O.co2     1 <0>        -0.6286
     29 H2          5.9222    5.1421   -6.7111 H         1 <0>         0.0692
     30 H3          6.8490    3.6630   -6.3625 H         1 <0>         0.0655
     31 H4          5.0951    3.7057   -6.0623 H         1 <0>         0.0691
     32 H5          4.1923    4.8772   -4.1369 H         1 <0>         0.1257
     33 H6          4.6041    5.6744   -1.8438 H         1 <0>         0.1237
     34 H7          8.8065    5.5789   -2.5655 H         1 <0>         0.1215
     35 H8          8.3949    4.7738   -4.8558 H         1 <0>         0.1209
     36 H9          6.1505    6.7841   -0.3365 H         1 <0>         0.0587
     37 H10         7.9045    6.7401   -0.6363 H         1 <0>         0.0591
     38 H11         5.6792    5.8845    4.4168 H         1 <0>         0.1312
     39 H12         7.9867    6.0646    5.2506 H         1 <0>         0.1277
     40 H13         9.8835    5.7711    3.7100 H         1 <0>         0.1302
     41 H14        11.1217    6.3716    2.1304 H         1 <0>         0.0533
     42 H15        11.1384    4.6272    2.4843 H         1 <0>         0.0554
     43 H16        11.7413    5.2237    0.9193 H         1 <0>         0.0992
     44 H17         4.8008    5.7515    0.8855 H         1 <0>         0.0758
     45 H18         4.1918    5.9242    2.5491 H         1 <0>         0.0781
     46 H19         4.4928    3.4898    2.9120 H         1 <0>         0.0780
     47 H20         5.1019    3.3171    1.2484 H         1 <0>         0.0843
     48 H21         3.3452    2.8463   -0.4677 H         1 <0>         0.0921
     49 H22         2.7702    4.5388   -0.5375 H         1 <0>         0.0559
     50 H23         0.2375    4.6267    1.1967 H         1 <0>         0.0947
     51 H24         0.0311    2.9601    1.8211 H         1 <0>         0.1054
     52 O5         -0.0110    0.9628    0.0073 O.co2     1 <0>        -0.7637
@<TRIPOS>BOND
     1    1    2 1
     2    1   29 1
     3    1   30 1
     4    1   31 1
     5    2    7 ar
     6    2    3 ar
     7    3    4 ar
     8    3   32 1
     9    4    5 ar
    10    4   33 1
    11    5    6 ar
    12    5    8 1
    13    6    7 ar
    14    6   34 1
    15    7   35 1
    16    8    9 1
    17    8   36 1
    18    8   37 1
    19    9   10 1
    20   10   15 ar
    21   10   11 ar
    22   11   12 ar
    23   11   18 1
    24   12   13 ar
    25   12   38 1
    26   13   14 ar
    27   13   39 1
    28   14   15 ar
    29   14   40 1
    30   15   16 1
    31   16   17 1
    32   17   41 1
    33   17   42 1
    34   17   43 1
    35   18   19 1
    36   18   44 1
    37   18   45 1
    38   19   20 1
    39   19   46 1
    40   19   47 1
    41   20   25 am
    42   20   21 1
    43   21   22 1
    44   21   48 1
    45   21   49 1
    46   22   23 1
    47   22   24 1
    48   22   27 1
    49   24   25 1
    50   24   50 1
    51   24   51 1
    52   25   26 2
    53   27   28 2
    54   27   52 1
@<TRIPOS>MOLECULE
ZINC13401845
   43    44     0     0     0
SMALL
USER_CHARGES
(3R)-1-[2-[(5-butylsulfanyl-1,3,4-thiadiazol-2-yl)sulfanyl]acetyl]piperidine-3-carboxylic acid
@<TRIPOS>ATOM
      1 C1         -0.7766    1.6061   -3.7298 C.3       1 <0>        -0.1531
      2 C2         -0.0366    1.0992   -2.4903 C.3       1 <0>        -0.1183
      3 C3         -0.7527    1.5927   -1.2315 C.3       1 <0>        -0.1055
      4 C4         -0.0127    1.0858    0.0080 C.3       1 <0>        -0.1133
      5 S1         -0.8618    1.6708    1.5005 S.3       1 <0>         0.0435
      6 C5          0.0987    1.0127    2.8230 C.2       1 <0>         0.0493
      7 N1          1.1820    0.2613    2.7760 N.2       1 <0>        -0.2996
      8 N2          1.7848   -0.1442    3.9443 N.2       1 <0>        -0.3083
      9 C6          1.2701    0.2107    5.1059 C.2       1 <0>         0.0449
     10 S2         -0.1388    1.1778    4.5857 S.3       1 <0>         0.0618
     11 S3          1.8246   -0.1672    6.7351 S.3       1 <0>         0.1441
     12 C7          3.3035   -1.1839    6.4705 C.3       1 <0>        -0.1569
     13 C8          3.8850   -1.5810    7.8028 C.2       1 <0>         0.5313
     14 O1          3.3542   -1.2143    8.8298 O.2       1 <0>        -0.5248
     15 N3          4.9951   -2.3437    7.8532 N.am      1 <0>        -0.5972
     16 C9          5.6460   -2.8008    6.6178 C.3       1 <0>         0.1026
     17 C10         5.8038   -4.3193    6.6710 C.3       1 <0>        -0.1363
     18 C11         6.5438   -4.7084    7.9528 C.3       1 <0>        -0.0977
     19 C12         5.7293   -4.2628    9.1694 C.3       1 <0>        -0.1411
     20 H1          4.7447   -4.7294    9.1394 H         1 <0>         0.0726
     21 C13         5.5739   -2.7390    9.1445 C.3       1 <0>         0.1357
     22 C14         6.4431   -4.6750   10.4310 C.2       1 <0>         0.4674
     23 O2          7.4940   -5.2674   10.3645 O.co2     1 <0>        -0.6354
     24 H2         -1.7991    1.2288   -3.7221 H         1 <0>         0.0558
     25 H3         -0.7913    2.6960   -3.7239 H         1 <0>         0.0557
     26 H4         -0.2664    1.2545   -4.6266 H         1 <0>         0.0573
     27 H5          0.9860    1.4765   -2.4981 H         1 <0>         0.0667
     28 H6         -0.0218    0.0093   -2.4963 H         1 <0>         0.0668
     29 H7         -1.7753    1.2154   -1.2238 H         1 <0>         0.0761
     30 H8         -0.7675    2.6825   -1.2255 H         1 <0>         0.0760
     31 H9          0.0021   -0.0041    0.0020 H         1 <0>         0.0988
     32 H10         1.0099    1.4631    0.0003 H         1 <0>         0.0986
     33 H11         3.0334   -2.0793    5.9105 H         1 <0>         0.1275
     34 H12         4.0415   -0.6123    5.9078 H         1 <0>         0.1271
     35 H13         5.0323   -2.5285    5.7591 H         1 <0>         0.0797
     36 H14         6.6284   -2.3370    6.5292 H         1 <0>         0.0741
     37 H15         6.3730   -4.6577    5.8053 H         1 <0>         0.0735
     38 H16         4.8185   -4.7855    6.6640 H         1 <0>         0.0634
     39 H17         7.5192   -4.2222    7.9709 H         1 <0>         0.0643
     40 H18         6.6766   -5.7899    7.9811 H         1 <0>         0.0671
     41 H19         6.5503   -2.2700    9.2662 H         1 <0>         0.0673
     42 H20         4.9138   -2.4236    9.9526 H         1 <0>         0.1024
     43 O3          5.9113   -4.3840   11.6287 O.co2     1 <0>        -0.7637
@<TRIPOS>BOND
     1    1    2 1
     2    1   24 1
     3    1   25 1
     4    1   26 1
     5    2    3 1
     6    2   27 1
     7    2   28 1
     8    3    4 1
     9    3   29 1
    10    3   30 1
    11    4    5 1
    12    4   31 1
    13    4   32 1
    14    5    6 1
    15    6   10 1
    16    6    7 2
    17    7    8 1
    18    8    9 2
    19    9   10 1
    20    9   11 1
    21   11   12 1
    22   12   13 1
    23   12   33 1
    24   12   34 1
    25   13   14 2
    26   13   15 am
    27   15   21 1
    28   15   16 1
    29   16   17 1
    30   16   35 1
    31   16   36 1
    32   17   18 1
    33   17   37 1
    34   17   38 1
    35   18   19 1
    36   18   39 1
    37   18   40 1
    38   19   20 1
    39   19   21 1
    40   19   22 1
    41   21   41 1
    42   21   42 1
    43   22   23 2
    44   22   43 1
@<TRIPOS>MOLECULE
ZINC55119717
   48    50     0     0     0
SMALL
USER_CHARGES

@<TRIPOS>ATOM
      1 C1         -0.0205    1.3041   -0.1257 C.ar      1 <0>        -0.1205
      2 C2          1.1622    2.0217   -0.1379 C.ar      1 <0>        -0.1202
      3 C3          2.3734    1.3609   -0.1375 C.ar      1 <0>        -0.1062
      4 C4          2.4037   -0.0340   -0.1243 C.ar      1 <0>        -0.0562
      5 C5          1.2072   -0.7518   -0.1114 C.ar      1 <0>        -0.1122
      6 C6          0.0026   -0.0791   -0.1124 C.ar      1 <0>        -0.1189
      7 C7          3.6978   -0.7483   -0.1242 C.2       1 <0>        -0.0943
      8 C8          3.7233   -2.0737   -0.1116 C.2       1 <0>        -0.1340
      9 C9          5.0427   -2.8020   -0.1116 C.3       1 <0>        -0.0827
     10 S1          5.2310   -3.7120    1.4463 S.3       1 <0>        -0.0141
     11 C10         6.8001   -4.4989    1.2933 C.ar      1 <0>         0.1539
     12 C11         7.2802   -5.3109    2.3363 C.ar      1 <0>        -0.1558
     13 C12         8.5289   -5.9255    2.1912 C.ar      1 <0>        -0.0268
     14 C13         9.2382   -5.7060    1.0235 C.ar      1 <0>        -0.1867
     15 C14         8.6999   -4.8937    0.0413 C.ar      1 <0>         0.1313
     16 N1          7.5192   -4.3270    0.1940 N.ar      1 <0>        -0.4945
     17 C15         6.4831   -5.5105    3.5599 C.2       1 <0>         0.5604
     18 O1          5.3354   -5.9047    3.4804 O.2       1 <0>        -0.5231
     19 N2          7.0261   -5.2562    4.7669 N.am      1 <0>        -0.5936
     20 C16         6.2928   -5.5741    5.9998 C.3       1 <0>         0.1119
     21 C17         6.2267   -4.3167    6.8723 C.3       1 <0>        -0.1089
     22 C18         7.6433   -3.7857    7.1029 C.3       1 <0>        -0.1534
     23 C19         8.2737   -3.4092    5.7601 C.3       1 <0>        -0.1103
     24 C20         8.3653   -4.6614    4.8750 C.3       1 <0>         0.1056
     25 C21         7.5850   -2.5682    7.9891 C.2       1 <0>         0.4968
     26 O2          8.4258   -2.4049    8.8568 O.co2     1 <0>        -0.7033
     27 O3          6.6970   -1.7464    7.8384 O.co2     1 <0>        -0.6944
     28 H1         -0.9660    1.8261   -0.1219 H         1 <0>         0.1211
     29 H2          1.1374    3.1013   -0.1482 H         1 <0>         0.1231
     30 H3          3.2961    1.9222   -0.1479 H         1 <0>         0.1250
     31 H4          1.2240   -1.8316   -0.1015 H         1 <0>         0.1254
     32 H5         -0.9242   -0.6334   -0.1029 H         1 <0>         0.1230
     33 H6          4.6225   -0.1905   -0.1345 H         1 <0>         0.1232
     34 H7          2.7986   -2.6315   -0.1013 H         1 <0>         0.1241
     35 H8          5.0715   -3.5017   -0.9468 H         1 <0>         0.1016
     36 H9          5.8550   -2.0822   -0.2124 H         1 <0>         0.0951
     37 H10         8.9295   -6.5555    2.9716 H         1 <0>         0.1443
     38 H11        10.2051   -6.1651    0.8799 H         1 <0>         0.1431
     39 H12         9.2555   -4.7236   -0.8690 H         1 <0>         0.1620
     40 H13         5.2827   -5.8994    5.7505 H         1 <0>         0.0893
     41 H14         6.8114   -6.3665    6.5394 H         1 <0>         0.0652
     42 H15         5.6302   -3.5557    6.3692 H         1 <0>         0.0726
     43 H16         5.7698   -4.5627    7.8309 H         1 <0>         0.0674
     44 H17         8.2461   -4.5560    7.5838 H         1 <0>         0.0612
     45 H18         7.6580   -2.6567    5.2675 H         1 <0>         0.0669
     46 H19         9.2738   -3.0092    5.9271 H         1 <0>         0.0702
     47 H20         9.0494   -5.3809    5.3248 H         1 <0>         0.0697
     48 H21         8.7231   -4.3844    3.8834 H         1 <0>         0.0765
@<TRIPOS>BOND
     1    1    6 ar
     2    1    2 ar
     3    1   28 1
     4    2    3 ar
     5    2   29 1
     6    3    4 ar
     7    3   30 1
     8    4    5 ar
     9    4    7 1
    10    5    6 ar
    11    5   31 1
    12    6   32 1
    13    7    8 2
    14    7   33 1
    15    8    9 1
    16    8   34 1
    17    9   10 1
    18    9   35 1
    19    9   36 1
    20   10   11 1
    21   11   16 ar
    22   11   12 ar
    23   12   13 ar
    24   12   17 1
    25   13   14 ar
    26   13   37 1
    27   14   15 ar
    28   14   38 1
    29   15   16 ar
    30   15   39 1
    31   17   18 2
    32   17   19 am
    33   19   24 1
    34   19   20 1
    35   20   21 1
    36   20   40 1
    37   20   41 1
    38   21   22 1
    39   21   42 1
    40   21   43 1
    41   22   23 1
    42   22   25 1
    43   22   44 1
    44   23   24 1
    45   23   45 1
    46   23   46 1
    47   24   47 1
    48   24   48 1
    49   25   26 2
    50   25   27 1
@<TRIPOS>MOLECULE
ZINC63857913
   49    51     0     0     0
SMALL
USER_CHARGES

@<TRIPOS>ATOM
      1 C1         -0.0247   -1.0150   -0.5533 C.3       1 <0>        -0.1441
      2 C2          0.3681   -1.8148    0.6905 C.3       1 <0>        -0.0850
      3 C3          0.9910   -0.8913    1.7055 C.ar      1 <0>        -0.0986
      4 C4          2.3639   -0.7497    1.7607 C.ar      1 <0>        -0.1174
      5 C5          2.9362    0.0977    2.6913 C.ar      1 <0>        -0.1272
      6 C6          2.1367    0.8059    3.5701 C.ar      1 <0>        -0.1210
      7 C7          0.7636    0.6690    3.5204 C.ar      1 <0>        -0.0706
      8 C8          0.1850   -0.1772    2.5827 C.ar      1 <0>         0.1554
      9 N1         -1.2050   -0.3138    2.5258 N.pl3     1 <0>        -0.6575
     10 C9         -1.9208   -0.5180    3.6756 C.2       1 <0>         0.4249
     11 C10        -3.3134   -0.5310    3.6362 C.2       1 <0>        -0.3079
     12 C11        -4.0498   -0.7411    4.8192 C.2       1 <0>         0.4277
     13 O1         -3.4681   -0.9170    5.8764 O.2       1 <0>        -0.4169
     14 C12        -5.5292   -0.7483    4.7785 C.ar      1 <0>        -0.1315
     15 C13        -6.2501   -1.5655    5.6501 C.ar      1 <0>        -0.0780
     16 C14        -7.6291   -1.5677    5.6071 C.ar      1 <0>        -0.1293
     17 C15        -8.2972   -0.7622    4.7020 C.ar      1 <0>        -0.1116
     18 C16        -7.5882    0.0503    3.8351 C.ar      1 <0>        -0.1243
     19 C17        -6.2091    0.0663    3.8723 C.ar      1 <0>        -0.1002
     20 N2         -3.9699   -0.3386    2.4420 N.ar      1 <0>        -0.1600
     21 C18        -4.5550   -1.3720    1.8515 C.ar      1 <0>        -0.0255
     22 C19        -5.2235   -1.2117    0.6494 C.ar      1 <0>         0.2601
     23 C20        -5.2752    0.0515    0.0655 C.ar      1 <0>        -0.1780
     24 C21        -4.6517    1.1066    0.7138 C.ar      1 <0>        -0.0842
     25 C22        -4.0067    0.8769    1.9123 C.ar      1 <0>        -0.0180
     26 C23        -3.3316    2.0201    2.6252 C.3       1 <0>        -0.1037
     27 O2         -5.8210   -2.2735    0.0471 O.3       1 <0>        -0.6603
     28 S1         -1.0803   -0.7643    5.2045 S.3       1 <0>        -0.6837
     29 H1          0.8633   -0.5501   -0.9817 H         1 <0>         0.0570
     30 H2         -0.4752   -1.6829   -1.2874 H         1 <0>         0.0590
     31 H3         -0.7419   -0.2422   -0.2768 H         1 <0>         0.0475
     32 H4         -0.5198   -2.2796    1.1189 H         1 <0>         0.0683
     33 H5          1.0853   -2.5876    0.4140 H         1 <0>         0.0723
     34 H6          2.9910   -1.3018    1.0764 H         1 <0>         0.1173
     35 H7          4.0099    0.2066    2.7324 H         1 <0>         0.1156
     36 H8          2.5870    1.4665    4.2963 H         1 <0>         0.1187
     37 H9          0.1400    1.2221    4.2071 H         1 <0>         0.1322
     38 H10        -1.6627   -0.2639    1.6720 H         1 <0>         0.3940
     39 H11        -5.7297   -2.1952    6.3565 H         1 <0>         0.1270
     40 H12        -8.1882   -2.1997    6.2811 H         1 <0>         0.1213
     41 H13        -9.3767   -0.7680    4.6718 H         1 <0>         0.1187
     42 H14        -8.1156    0.6765    3.1307 H         1 <0>         0.1193
     43 H15        -5.6570    0.7043    3.1982 H         1 <0>         0.1248
     44 H16        -4.5094   -2.3477    2.3122 H         1 <0>         0.1631
     45 H17        -5.7892    0.2057   -0.8717 H         1 <0>         0.1341
     46 H18        -4.6732    2.0986    0.2871 H         1 <0>         0.1435
     47 H19        -2.2985    2.0998    2.2871 H         1 <0>         0.0716
     48 H20        -3.8589    2.9482    2.4043 H         1 <0>         0.0786
     49 H21        -3.3493    1.8392    3.7000 H         1 <0>         0.0824
@<TRIPOS>BOND
     1    1    2 1
     2    1   29 1
     3    1   30 1
     4    1   31 1
     5    2    3 1
     6    2   32 1
     7    2   33 1
     8    3    8 ar
     9    3    4 ar
    10    4    5 ar
    11    4   34 1
    12    5    6 ar
    13    5   35 1
    14    6    7 ar
    15    6   36 1
    16    7    8 ar
    17    7   37 1
    18    8    9 1
    19    9   10 1
    20    9   38 1
    21   10   11 2
    22   10   28 1
    23   11   12 1
    24   11   20 1
    25   12   13 2
    26   12   14 1
    27   14   19 ar
    28   14   15 ar
    29   15   16 ar
    30   15   39 1
    31   16   17 ar
    32   16   40 1
    33   17   18 ar
    34   17   41 1
    35   18   19 ar
    36   18   42 1
    37   19   43 1
    38   20   25 ar
    39   20   21 ar
    40   21   22 ar
    41   21   44 1
    42   22   23 ar
    43   22   27 1
    44   23   24 ar
    45   23   45 1
    46   24   25 ar
    47   24   46 1
    48   25   26 1
    49   26   47 1
    50   26   48 1
    51   26   49 1
@<TRIPOS>MOLECULE
ZINC66729863
   39    39     0     0     0
SMALL
USER_CHARGES

@<TRIPOS>ATOM
      1 C1         -0.0178    1.4608    0.0101 C.3       1 <0>         0.0963
      2 N1          0.0021   -0.0041    0.0020 N.pl3     1 <0>        -1.0102
      3 C2          0.0241   -0.7433    1.2666 C.3       1 <0>         0.1069
      4 S1         -0.0004   -0.8243   -1.4366 S.o2      1 <0>         2.7525
      5 O1         -0.5312   -2.1147   -1.1675 O.2       1 <0>        -1.0263
      6 O2         -0.5723    0.0488   -2.4009 O.2       1 <0>        -1.0269
      7 N2          1.5806   -1.0453   -1.8769 N.2       1 <0>        -1.0734
      8 C3          1.8647   -1.6646   -2.9728 C.2       1 <0>         0.4853
      9 O3          0.8735   -2.1321   -3.7598 O.3       1 <0>        -0.7337
     10 C4          3.3034   -1.8657   -3.3735 C.3       1 <0>        -0.0825
     11 C5          4.2188   -1.2454   -2.3160 C.3       1 <0>        -0.0924
     12 C6          5.6795   -1.4496   -2.7229 C.3       1 <0>        -0.1222
     13 C7          6.5949   -0.8293   -1.6654 C.3       1 <0>         0.0574
     14 O4          7.9592   -1.0200   -2.0454 O.3       1 <0>        -0.3112
     15 C8          8.9081   -0.5245   -1.2079 C.ar      1 <0>         0.1547
     16 C9          8.5335    0.1267   -0.0416 C.ar      1 <0>        -0.2052
     17 C10         9.4994    0.6297    0.8083 C.ar      1 <0>        -0.0480
     18 C11        10.8395    0.4843    0.4970 C.ar      1 <0>        -0.1356
     19 C12        11.2152   -0.1643   -0.6657 C.ar      1 <0>        -0.0517
     20 C13        10.2525   -0.6741   -1.5152 C.ar      1 <0>        -0.1516
     21 Br1        12.1597    1.1738    1.6623 Br        1 <0>        -0.0585
     22 H1          1.0048    1.8381    0.0023 H         1 <0>         0.0474
     23 H2         -0.5450    1.8219   -0.8730 H         1 <0>         0.0746
     24 H3         -0.5280    1.8123    0.9069 H         1 <0>         0.0599
     25 H4         -0.9979   -0.9406    1.5900 H         1 <0>         0.0438
     26 H5          0.5496   -1.6879    1.1262 H         1 <0>         0.0676
     27 H6          0.5371   -0.1514    2.0246 H         1 <0>         0.0601
     28 H7          3.5124   -2.9324   -3.4544 H         1 <0>         0.0770
     29 H8          3.4830   -1.3863   -4.3358 H         1 <0>         0.0770
     30 H9          4.0099   -0.1787   -2.2352 H         1 <0>         0.0719
     31 H10         4.0393   -1.7248   -1.3537 H         1 <0>         0.0718
     32 H11         5.8885   -2.5163   -2.8037 H         1 <0>         0.0709
     33 H12         5.8591   -0.9702   -3.6852 H         1 <0>         0.0709
     34 H13         6.3860    0.2374   -1.5845 H         1 <0>         0.0662
     35 H14         6.4154   -1.3087   -0.7031 H         1 <0>         0.0661
     36 H15         7.4874    0.2407    0.2016 H         1 <0>         0.1403
     37 H16         9.2082    1.1370    1.7161 H         1 <0>         0.1342
     38 H17        12.2619   -0.2764   -0.9071 H         1 <0>         0.1371
     39 H18        10.5463   -1.1850   -2.4203 H         1 <0>         0.1395
@<TRIPOS>BOND
     1    1    2 1
     2    1   22 1
     3    1   23 1
     4    1   24 1
     5    2    3 1
     6    2    4 1
     7    3   25 1
     8    3   26 1
     9    3   27 1
    10    4    5 2
    11    4    6 2
    12    4    7 1
    13    7    8 2
    14    8    9 1
    15    8   10 1
    16   10   11 1
    17   10   28 1
    18   10   29 1
    19   11   12 1
    20   11   30 1
    21   11   31 1
    22   12   13 1
    23   12   32 1
    24   12   33 1
    25   13   14 1
    26   13   34 1
    27   13   35 1
    28   14   15 1
    29   15   20 ar
    30   15   16 ar
    31   16   17 ar
    32   16   36 1
    33   17   18 ar
    34   17   37 1
    35   18   19 ar
    36   18   21 1
    37   19   20 ar
    38   19   38 1
    39   20   39 1
@<TRIPOS>MOLECULE
ZINC13746179
   46    48     0     0     0
SMALL
USER_CHARGES
(6S)-2-[[2-[(4,5-dimethyl-1,2,4-triazol-3-yl)sulfanyl]acetyl]amino]-6-methyl-4,5,6,7-tetrahydrobenzothiophene-3-carboxamide
@<TRIPOS>ATOM
      1 C1         -0.0127    1.0858    0.0080 C.3       1 <0>        -0.0681
      2 C2         -0.7181    1.5718    1.2479 C.2       1 <0>         0.1884
      3 N1         -0.1656    1.8308    2.3992 N.2       1 <0>        -0.2833
      4 N2         -1.0564    2.2260    3.2371 N.2       1 <0>        -0.2918
      5 C3         -2.2357    2.2406    2.6605 C.2       1 <0>         0.1327
      6 N3         -2.0557    1.8284    1.3713 N.pl3     1 <0>        -0.4629
      7 C4         -3.0827    1.6873    0.3362 C.3       1 <0>         0.0685
      8 S1         -3.7612    2.7097    3.4071 S.3       1 <0>         0.0919
      9 C5         -3.1832    3.1190    5.0728 C.3       1 <0>        -0.1461
     10 C6         -4.3519    3.5600    5.9158 C.2       1 <0>         0.5316
     11 O1         -5.4659    3.5943    5.4376 O.2       1 <0>        -0.4835
     12 N4         -4.1591    3.9164    7.2012 N.am      1 <0>        -0.6127
     13 C7         -5.2344    4.3222    7.9769 C.2       1 <0>         0.0676
     14 C8         -5.2376    4.7175    9.3071 C.2       1 <0>        -0.2211
     15 C9         -6.5115    5.1025    9.8903 C.2       1 <0>        -0.0663
     16 C10        -7.5727    5.0218    9.0586 C.2       1 <0>        -0.2042
     17 S2         -6.9015    4.4516    7.5228 S.3       1 <0>         0.2332
     18 C11        -8.9987    5.3481    9.3794 C.3       1 <0>        -0.0310
     19 C12        -9.0286    6.1482   10.6898 C.3       1 <0>        -0.0876
     20 H1         -8.6438    7.1530   10.5155 H         1 <0>         0.0768
     21 C13        -8.1521    5.4350   11.7234 C.3       1 <0>        -0.1135
     22 C14        -6.6786    5.5630   11.3332 C.3       1 <0>        -0.0605
     23 C15       -10.4661    6.2320   11.2069 C.3       1 <0>        -0.1477
     24 C16        -4.0007    4.7489   10.0939 C.2       1 <0>         0.5830
     25 O2         -3.3245    5.7605   10.1245 O.2       1 <0>        -0.5313
     26 N5         -3.6125    3.6577   10.7831 N.am      1 <0>        -0.8476
     27 H2          0.0021   -0.0041    0.0020 H         1 <0>         0.0897
     28 H3          1.0099    1.4631    0.0003 H         1 <0>         0.0987
     29 H4         -0.5399    1.4469   -0.8751 H         1 <0>         0.0800
     30 H5         -3.4971    0.6797    0.3704 H         1 <0>         0.0890
     31 H6         -3.8770    2.4130    0.5111 H         1 <0>         0.0951
     32 H7         -2.6381    1.8643   -0.6432 H         1 <0>         0.0983
     33 H8         -2.7213    2.2404    5.5232 H         1 <0>         0.1363
     34 H9         -2.4517    3.9250    5.0157 H         1 <0>         0.1366
     35 H10        -3.2681    3.8890    7.5837 H         1 <0>         0.4235
     36 H11        -9.4289    5.9445    8.5749 H         1 <0>         0.0818
     37 H12        -9.5683    4.4265    9.4991 H         1 <0>         0.0842
     38 H13        -8.4255    4.3806   11.7642 H         1 <0>         0.0672
     39 H14        -8.3077    5.8863   12.7033 H         1 <0>         0.0712
     40 H15        -6.0714    4.9387   11.9886 H         1 <0>         0.0726
     41 H16        -6.3634    6.6025   11.4238 H         1 <0>         0.0798
     42 H17       -10.4835    6.7897   12.1432 H         1 <0>         0.0586
     43 H18       -11.0883    6.7399   10.4699 H         1 <0>         0.0579
     44 H19       -10.8507    5.2262   11.3758 H         1 <0>         0.0571
     45 H20        -4.1513    2.8516   10.7587 H         1 <0>         0.4037
     46 H21        -2.7942    3.6786   11.3036 H         1 <0>         0.4041
@<TRIPOS>BOND
     1    1    2 1
     2    1   27 1
     3    1   28 1
     4    1   29 1
     5    2    6 1
     6    2    3 2
     7    3    4 1
     8    4    5 2
     9    5    6 1
    10    5    8 1
    11    6    7 1
    12    7   30 1
    13    7   31 1
    14    7   32 1
    15    8    9 1
    16    9   10 1
    17    9   33 1
    18    9   34 1
    19   10   11 2
    20   10   12 am
    21   12   13 1
    22   12   35 1
    23   13   17 1
    24   13   14 2
    25   14   15 1
    26   14   24 1
    27   15   22 1
    28   15   16 2
    29   16   17 1
    30   16   18 1
    31   18   19 1
    32   18   36 1
    33   18   37 1
    34   19   20 1
    35   19   21 1
    36   19   23 1
    37   21   22 1
    38   21   38 1
    39   21   39 1
    40   22   40 1
    41   22   41 1
    42   23   42 1
    43   23   43 1
    44   23   44 1
    45   24   25 2
    46   24   26 am
    47   26   45 1
    48   26   46 1
@<TRIPOS>MOLECULE
ZINC44015835
   47    48     0     0     0
SMALL
USER_CHARGES

@<TRIPOS>ATOM
      1 C1         -0.0525    1.5408   -0.0198 C.3       1 <0>        -0.1605
      2 C2         -0.0272    0.0111   -0.0336 C.3       1 <0>         0.1948
      3 H1          0.5061   -0.3515    0.8451 H         1 <0>         0.1062
      4 C3          0.6724   -0.4685   -1.2793 C.ar      1 <0>        -0.0386
      5 C4         -0.0043   -0.4978   -2.4843 C.ar      1 <0>        -0.1357
      6 C5          0.6374   -0.9377   -3.6269 C.ar      1 <0>        -0.0183
      7 C6          1.9561   -1.3479   -3.5645 C.ar      1 <0>        -0.6590
      8 C7          2.6331   -1.3177   -2.3597 C.ar      1 <0>        -0.0174
      9 C8          1.9926   -0.8737   -1.2179 C.ar      1 <0>        -0.1254
     10 S1          2.7737   -1.9097   -5.0207 S.o2      1 <0>         2.4995
     11 O1          3.7904   -2.7844   -4.5511 O.2       1 <0>        -0.9356
     12 O2          1.7322   -2.3930   -5.8579 O.2       1 <0>        -0.9364
     13 C9          3.5155   -0.4202   -5.7430 C.3       1 <0>        -0.6498
     14 N1         -1.4000   -0.5002   -0.0171 N.am      1 <0>        -0.7364
     15 C10        -2.0491   -0.6502    1.1545 C.2       1 <0>         0.7095
     16 O3         -1.4954   -0.3613    2.1977 O.2       1 <0>        -0.5672
     17 N2         -3.3121   -1.1206    1.1697 N.am      1 <0>        -0.6822
     18 C11        -3.9530   -1.3667    2.3905 C.ar      1 <0>         0.1727
     19 C12        -3.7117   -0.5408    3.4807 C.ar      1 <0>        -0.1039
     20 C13        -4.3432   -0.7823    4.6859 C.ar      1 <0>        -0.1146
     21 C14        -5.2171   -1.8473    4.8103 C.ar      1 <0>         0.0574
     22 C15        -5.4618   -2.6775    3.7218 C.ar      1 <0>         0.1313
     23 C16        -4.8335   -2.4322    2.5095 C.ar      1 <0>        -0.1237
     24 N3         -6.3461   -3.7560    3.8475 N.am      1 <0>        -0.6708
     25 C17        -6.1156   -4.8988    3.1713 C.2       1 <0>         0.5133
     26 O4         -5.1895   -4.9655    2.3909 O.2       1 <0>        -0.5243
     27 C18        -7.0086   -6.0939    3.3846 C.3       1 <0>        -0.1698
     28 F1         -5.8328   -2.0812    5.9899 F         1 <0>        -0.1370
     29 H2          0.9689    1.9212   -0.0321 H         1 <0>         0.0719
     30 H3         -0.5858    1.9034   -0.8985 H         1 <0>         0.0611
     31 H4         -0.5585    1.8877    0.8812 H         1 <0>         0.0718
     32 H5         -1.0345   -0.1774   -2.5330 H         1 <0>         0.1315
     33 H6          0.1085   -0.9613   -4.5682 H         1 <0>         0.1451
     34 H7          3.6632   -1.6384   -2.3109 H         1 <0>         0.1463
     35 H8          2.5227   -0.8466   -0.2773 H         1 <0>         0.1382
     36 H9          4.2151    0.0188   -5.0316 H         1 <0>         0.1320
     37 H10         4.0458   -0.6853   -6.6576 H         1 <0>         0.1342
     38 H11         2.7314    0.3010   -5.9736 H         1 <0>         0.1316
     39 H12        -1.8418   -0.7306   -0.8493 H         1 <0>         0.3988
     40 H13        -3.7772   -1.2886    0.3352 H         1 <0>         0.4095
     41 H14        -3.0294    0.2910    3.3866 H         1 <0>         0.1528
     42 H15        -4.1539   -0.1386    5.5322 H         1 <0>         0.1449
     43 H16        -5.0258   -3.0724    1.6613 H         1 <0>         0.1523
     44 H17        -7.1246   -3.6806    4.4213 H         1 <0>         0.4162
     45 H18        -7.7785   -5.8463    4.1155 H         1 <0>         0.0804
     46 H19        -7.4789   -6.3692    2.4406 H         1 <0>         0.1012
     47 H20        -6.4144   -6.9305    3.7521 H         1 <0>         0.1020
@<TRIPOS>BOND
     1    1    2 1
     2    1   29 1
     3    1   30 1
     4    1   31 1
     5    2    3 1
     6    2    4 1
     7    2   14 1
     8    4    9 ar
     9    4    5 ar
    10    5    6 ar
    11    5   32 1
    12    6    7 ar
    13    6   33 1
    14    7    8 ar
    15    7   10 1
    16    8    9 ar
    17    8   34 1
    18    9   35 1
    19   10   11 2
    20   10   12 2
    21   10   13 1
    22   13   36 1
    23   13   37 1
    24   13   38 1
    25   14   15 am
    26   14   39 1
    27   15   16 2
    28   15   17 am
    29   17   18 1
    30   17   40 1
    31   18   23 ar
    32   18   19 ar
    33   19   20 ar
    34   19   41 1
    35   20   21 ar
    36   20   42 1
    37   21   22 ar
    38   21   28 1
    39   22   23 ar
    40   22   24 1
    41   23   43 1
    42   24   25 am
    43   24   44 1
    44   25   26 2
    45   25   27 1
    46   27   45 1
    47   27   46 1
    48   27   47 1
@<TRIPOS>MOLECULE
ZINC57846817
   58    61     0     0     0
SMALL
USER_CHARGES

@<TRIPOS>ATOM
      1 C1          0.1421    1.3374    0.1578 C.3       1 <0>         0.0552
      2 C2          1.6113    1.7604    0.0878 C.3       1 <0>         0.0598
      3 N1          2.3773    1.0321    1.1088 N.3       1 <0>        -0.5246
      4 C3          2.2777   -0.4194    0.9020 C.3       1 <0>         0.0521
      5 C4          0.8084   -0.8424    0.9720 C.3       1 <0>         0.0608
      6 N2          0.0425   -0.1141   -0.0491 N.3       1 <0>        -0.5321
      7 C5         -1.3606   -0.5487   -0.0642 C.3       1 <0>         0.0529
      8 C6         -1.9994   -0.1636   -1.4000 C.3       1 <0>         0.0828
      9 O1         -1.3630   -0.8838   -2.4575 O.3       1 <0>        -0.5602
     10 C7          3.7804    1.4667    1.1240 C.3       1 <0>         0.0393
     11 C8          4.4727    0.8876    2.3308 C.2       1 <0>         0.5153
     12 O2          3.8579    0.1825    3.1020 O.2       1 <0>        -0.4450
     13 N3          5.7752    1.1534    2.5527 N.am      1 <0>        -0.6952
     14 C9          6.3943    0.6355    3.6321 C.2       1 <0>         0.6950
     15 O3          5.7780   -0.0713    4.4052 O.2       1 <0>        -0.5218
     16 N4          7.6968    0.9014    3.8540 N.am      1 <0>        -0.7338
     17 C10         8.3697    0.3384    5.0272 C.3       1 <0>         0.2002
     18 C11         7.6713    0.8254    6.2984 C.3       1 <0>        -0.1238
     19 C12         8.3741    0.2375    7.5237 C.3       1 <0>        -0.0822
     20 C13         9.8355    0.6901    7.5394 C.3       1 <0>        -0.1117
     21 C14        10.5340    0.2031    6.2682 C.3       1 <0>        -0.0800
     22 C15         9.8312    0.7910    5.0430 C.3       1 <0>        -0.1137
     23 C16        10.4738   -1.3245    6.2066 C.3       1 <0>        -0.1117
     24 C17         9.0124   -1.7771    6.1908 C.3       1 <0>        -0.0822
     25 C18         8.3139   -1.2901    7.4620 C.3       1 <0>        -0.1102
     26 C19         8.3096   -1.1892    4.9656 C.3       1 <0>        -0.1237
     27 H1         -0.2640    1.5940    1.1362 H         1 <0>         0.0438
     28 H2         -0.4226    1.8548   -0.6178 H         1 <0>         0.0802
     29 H3          2.0099    1.5285   -0.8999 H         1 <0>         0.0470
     30 H4          1.6903    2.8322    0.2697 H         1 <0>         0.0818
     31 H5          2.6838   -0.6761   -0.0764 H         1 <0>         0.0411
     32 H6          2.8424   -0.9369    1.6776 H         1 <0>         0.0964
     33 H7          0.7295   -1.9142    0.7901 H         1 <0>         0.0809
     34 H8          0.4099   -0.6106    1.9597 H         1 <0>         0.0447
     35 H9         -1.4074   -1.6303    0.0625 H         1 <0>         0.0818
     36 H10        -1.8999   -0.0639    0.7496 H         1 <0>         0.0520
     37 H11        -3.0609   -0.4104   -1.3797 H         1 <0>         0.0476
     38 H12        -1.8784    0.9070   -1.5654 H         1 <0>         0.0438
     39 H13        -1.7182   -0.6888   -3.3356 H         1 <0>         0.3744
     40 H14         4.2780    1.1197    0.2183 H         1 <0>         0.0716
     41 H15         3.8233    2.5549    1.1679 H         1 <0>         0.1108
     42 H16         6.2670    1.7175    1.9357 H         1 <0>         0.4075
     43 H17         8.1886    1.4654    3.2369 H         1 <0>         0.3961
     44 H18         7.7141    1.9137    6.3423 H         1 <0>         0.0593
     45 H19         6.6301    0.5030    6.2872 H         1 <0>         0.0871
     46 H20         7.8765    0.5844    8.4293 H         1 <0>         0.0728
     47 H21         9.8784    1.7784    7.5833 H         1 <0>         0.0625
     48 H22        10.3362    0.2712    8.4123 H         1 <0>         0.0655
     49 H23        11.5751    0.5255    6.2795 H         1 <0>         0.0759
     50 H24        10.3288    0.4441    4.1374 H         1 <0>         0.0690
     51 H25         9.8740    1.8793    5.0869 H         1 <0>         0.0691
     52 H26        10.9714   -1.6715    5.3010 H         1 <0>         0.0625
     53 H27        10.9745   -1.7434    7.0795 H         1 <0>         0.0655
     54 H28         8.9695   -2.8654    6.1469 H         1 <0>         0.0728
     55 H29         8.8146   -1.7090    8.3349 H         1 <0>         0.0631
     56 H30         7.2728   -1.6126    7.4508 H         1 <0>         0.0657
     57 H31         7.2684   -1.5116    4.9543 H         1 <0>         0.0870
     58 H32         8.8072   -1.5361    4.0600 H         1 <0>         0.0592
@<TRIPOS>BOND
     1    1    6 1
     2    1    2 1
     3    1   27 1
     4    1   28 1
     5    2    3 1
     6    2   29 1
     7    2   30 1
     8    3    4 1
     9    3   10 1
    10    4    5 1
    11    4   31 1
    12    4   32 1
    13    5    6 1
    14    5   33 1
    15    5   34 1
    16    6    7 1
    17    7    8 1
    18    7   35 1
    19    7   36 1
    20    8    9 1
    21    8   37 1
    22    8   38 1
    23    9   39 1
    24   10   11 1
    25   10   40 1
    26   10   41 1
    27   11   12 2
    28   11   13 am
    29   13   14 am
    30   13   42 1
    31   14   15 2
    32   14   16 am
    33   16   17 1
    34   16   43 1
    35   17   22 1
    36   17   26 1
    37   17   18 1
    38   18   19 1
    39   18   44 1
    40   18   45 1
    41   19   25 1
    42   19   20 1
    43   19   46 1
    44   20   21 1
    45   20   47 1
    46   20   48 1
    47   21   22 1
    48   21   23 1
    49   21   49 1
    50   22   50 1
    51   22   51 1
    52   23   24 1
    53   23   52 1
    54   23   53 1
    55   24   25 1
    56   24   26 1
    57   24   54 1
    58   25   55 1
    59   25   56 1
    60   26   57 1
    61   26   58 1
@<TRIPOS>MOLECULE
ZINC51674794
   55    56     0     0     0
SMALL
USER_CHARGES

@<TRIPOS>ATOM
      1 C1          0.9514   -0.7003   -0.8657 C.3       1 <0>        -0.1395
      2 C2          0.0662   -0.0311    0.1875 C.3       1 <0>        -0.5924
      3 C3          0.1027    1.4863   -0.0051 C.3       1 <0>        -0.1444
      4 S1         -1.6394   -0.6224    0.0082 S.o2      1 <0>         2.6102
      5 O1         -2.4469   -0.1138    1.0610 O.2       1 <0>        -0.9562
      6 O2         -2.0572   -0.5084   -1.3452 O.2       1 <0>        -0.9525
      7 N1         -1.5564   -2.2523    0.2890 N.pl3     1 <0>        -1.1196
      8 C4         -1.1214   -2.7492    1.5967 C.3       1 <0>         0.1207
      9 C5         -1.5371   -4.2136    1.7499 C.3       1 <0>        -0.1110
     10 C6         -1.1910   -4.6981    3.1597 C.3       1 <0>        -0.1147
     11 C7         -1.6361   -6.1530    3.3247 C.3       1 <0>        -0.1354
     12 C8         -0.8880   -7.0293    2.3151 C.3       1 <0>         0.1105
     13 N2         -1.0983   -6.4830    0.9675 N.am      1 <0>        -0.6297
     14 C9         -0.7878   -5.0679    0.7224 C.3       1 <0>         0.1324
     15 C10        -1.5667   -7.2651   -0.0251 C.2       1 <0>         0.7086
     16 O3         -1.6498   -6.8272   -1.1564 O.2       1 <0>        -0.5868
     17 N3         -1.9430   -8.5326    0.2362 N.am      1 <0>        -0.7417
     18 C11        -2.3479   -9.4171   -0.8592 C.3       1 <0>         0.1626
     19 C12        -1.1072  -10.0677   -1.4745 C.3       1 <0>        -0.1247
     20 C13        -1.5300  -10.9915   -2.6185 C.3       1 <0>        -0.1104
     21 C14        -2.4613  -12.0787   -2.0785 C.3       1 <0>         0.1022
     22 C15        -3.7020  -11.4281   -1.4633 C.3       1 <0>        -0.1487
     23 C16        -3.2792  -10.5043   -0.3192 C.3       1 <0>        -0.1215
     24 O4         -1.7776  -12.8389   -1.0802 O.3       1 <0>        -0.5633
     25 H1          1.9762   -0.3450   -0.7580 H         1 <0>         0.0774
     26 H2          0.9253   -1.7813   -0.7285 H         1 <0>         0.0703
     27 H3          0.5833   -0.4514   -1.8611 H         1 <0>         0.0759
     28 H4          0.4343   -0.2800    1.1828 H         1 <0>         0.1340
     29 H5         -0.1814    1.7296   -1.0289 H         1 <0>         0.0738
     30 H6         -0.5950    1.9574    0.6874 H         1 <0>         0.0718
     31 H7          1.1107    1.8530    0.1892 H         1 <0>         0.0829
     32 H8         -1.7958   -2.8781   -0.4125 H         1 <0>         0.4207
     33 H9         -0.0371   -2.6693    1.6734 H         1 <0>         0.0688
     34 H10        -1.5861   -2.1554    2.3839 H         1 <0>         0.0863
     35 H11        -2.6107   -4.3061    1.5862 H         1 <0>         0.0871
     36 H12        -0.1142   -4.6281    3.3136 H         1 <0>         0.0705
     37 H13        -1.7036   -4.0761    3.8935 H         1 <0>         0.0735
     38 H14        -1.4105   -6.4900    4.3364 H         1 <0>         0.0801
     39 H15        -2.7088   -6.2277    3.1466 H         1 <0>         0.0692
     40 H16         0.1769   -7.0274    2.5481 H         1 <0>         0.0724
     41 H17        -1.2722   -8.0483    2.3604 H         1 <0>         0.0770
     42 H18        -1.1060   -4.7929   -0.2831 H         1 <0>         0.0947
     43 H19         0.2852   -4.9061    0.8255 H         1 <0>         0.0692
     44 H20        -1.9459   -8.8591    1.1495 H         1 <0>         0.3943
     45 H21        -2.8694   -8.8372   -1.6207 H         1 <0>         0.0877
     46 H22        -0.4438   -9.2932   -1.8592 H         1 <0>         0.0651
     47 H23        -0.5857  -10.6476   -0.7130 H         1 <0>         0.0714
     48 H24        -2.0516  -10.4116   -3.3799 H         1 <0>         0.0781
     49 H25        -0.6462  -11.4550   -3.0568 H         1 <0>         0.0724
     50 H26        -2.7625  -12.7368   -2.8935 H         1 <0>         0.0574
     51 H27        -4.2235  -10.8482   -2.2247 H         1 <0>         0.0760
     52 H28        -4.3654  -12.2026   -1.0786 H         1 <0>         0.0707
     53 H29        -2.7576  -11.0842    0.4422 H         1 <0>         0.0736
     54 H30        -4.1630  -10.0408    0.1190 H         1 <0>         0.0671
     55 H31        -2.3091  -13.5478   -0.6930 H         1 <0>         0.3760
@<TRIPOS>BOND
     1    1    2 1
     2    1   25 1
     3    1   26 1
     4    1   27 1
     5    2    3 1
     6    2    4 1
     7    2   28 1
     8    3   29 1
     9    3   30 1
    10    3   31 1
    11    4    5 2
    12    4    6 2
    13    4    7 1
    14    7    8 1
    15    7   32 1
    16    8    9 1
    17    8   33 1
    18    8   34 1
    19    9   14 1
    20    9   10 1
    21    9   35 1
    22   10   11 1
    23   10   36 1
    24   10   37 1
    25   11   12 1
    26   11   38 1
    27   11   39 1
    28   12   13 1
    29   12   40 1
    30   12   41 1
    31   13   14 1
    32   13   15 am
    33   14   42 1
    34   14   43 1
    35   15   16 2
    36   15   17 am
    37   17   18 1
    38   17   44 1
    39   18   23 1
    40   18   19 1
    41   18   45 1
    42   19   20 1
    43   19   46 1
    44   19   47 1
    45   20   21 1
    46   20   48 1
    47   20   49 1
    48   21   22 1
    49   21   24 1
    50   21   50 1
    51   22   23 1
    52   22   51 1
    53   22   52 1
    54   23   53 1
    55   23   54 1
    56   24   55 1
@<TRIPOS>MOLECULE
ZINC67260814
   54    56     0     0     0
SMALL
USER_CHARGES

@<TRIPOS>ATOM
      1 C1          0.0536    1.5203    0.0208 C.3       1 <0>        -0.1698
      2 C2          0.0690   -0.0096    0.0104 C.3       1 <0>         0.1259
      3 N1          0.7422   -0.4830   -1.2015 N.pl3     1 <0>        -0.3662
      4 C3          0.1530   -0.7404   -2.3879 C.2       1 <0>         0.1126
      5 C4          1.1147   -1.1552   -3.2447 C.2       1 <0>        -0.2673
      6 C5          2.3334   -1.1511   -2.5584 C.2       1 <0>         0.0945
      7 N2          2.1123   -0.7425   -1.3353 N.2       1 <0>        -0.2941
      8 C6          3.6712   -1.5429   -3.1309 C.3       1 <0>        -0.0768
      9 C7          0.9089   -1.5523   -4.6839 C.3       1 <0>         0.2210
     10 N3          1.0572   -0.3739   -5.5416 N.am      1 <0>        -0.7334
     11 C8          0.9146   -0.4900   -6.8767 C.2       1 <0>         0.6996
     12 O1          0.6628   -1.5727   -7.3694 O.2       1 <0>        -0.5629
     13 N4          1.0511    0.5941   -7.6658 N.am      1 <0>        -0.6827
     14 C9          1.0201    0.4546   -9.0582 C.ar      1 <0>         0.1634
     15 C10         1.3633   -0.7553   -9.6414 C.ar      1 <0>        -0.0667
     16 C11         1.3304   -0.8894  -11.0291 C.ar      1 <0>        -0.1204
     17 C12         0.9521    0.1959  -11.8218 C.ar      1 <0>        -0.1054
     18 C13         0.6124    1.3959  -11.2316 C.ar      1 <0>        -0.1046
     19 C14         0.6399    1.5271   -9.8556 C.ar      1 <0>        -0.0949
     20 C15         0.2614    2.8393   -9.2186 C.3       1 <0>        -0.1186
     21 C16         1.6955   -2.1764  -11.6589 C.2       1 <0>         0.5640
     22 O2          2.0249   -3.1198  -10.9669 O.2       1 <0>        -0.5254
     23 N5          1.6629   -2.3035  -13.0003 N.am      1 <0>        -0.7005
     24 C17         2.0246   -3.5787  -13.6243 C.3       1 <0>         0.0789
     25 C18         2.9248   -3.5300  -14.8605 C.3       1 <0>        -0.1926
     26 C19         1.4423   -3.8789  -15.0069 C.3       1 <0>        -0.1886
     27 C20        -1.3135   -0.5929   -2.7022 C.3       1 <0>        -0.0976
     28 H1          1.0773    1.8941    0.0043 H         1 <0>         0.0658
     29 H2         -0.4803    1.8842   -0.8571 H         1 <0>         0.0605
     30 H3         -0.4473    1.8725    0.9226 H         1 <0>         0.0792
     31 H4          0.6029   -0.3735    0.8883 H         1 <0>         0.0972
     32 H5         -0.9548   -0.3834    0.0269 H         1 <0>         0.0940
     33 H6          4.1542   -0.6648   -3.5597 H         1 <0>         0.0772
     34 H7          4.2990   -1.9529   -2.3398 H         1 <0>         0.0745
     35 H8          3.5282   -2.2943   -3.9074 H         1 <0>         0.0798
     36 H9          1.6499   -2.3010   -4.9637 H         1 <0>         0.0772
     37 H10        -0.0914   -1.9675   -4.8067 H         1 <0>         0.0730
     38 H11         1.2581    0.4899   -5.1485 H         1 <0>         0.3968
     39 H12         1.1707    1.4710   -7.2687 H         1 <0>         0.4076
     40 H13         1.6555   -1.5912   -9.0231 H         1 <0>         0.1639
     41 H14         0.9257    0.0962  -12.8969 H         1 <0>         0.1250
     42 H15         0.3200    2.2343  -11.8464 H         1 <0>         0.1333
     43 H16         1.1491    3.4637   -9.1176 H         1 <0>         0.0752
     44 H17        -0.4718    3.3486   -9.8440 H         1 <0>         0.0756
     45 H18        -0.1670    2.6548   -8.2334 H         1 <0>         0.0646
     46 H19         1.4000   -1.5506  -13.5525 H         1 <0>         0.4008
     47 H20         2.1540   -4.4170  -12.9398 H         1 <0>         0.1397
     48 H21         3.2479   -2.5493  -15.2095 H         1 <0>         0.0972
     49 H22         3.6467   -4.3364  -14.9894 H         1 <0>         0.1037
     50 H23         1.1889   -4.9148  -15.2321 H         1 <0>         0.1050
     51 H24         0.7901   -3.1277  -15.4522 H         1 <0>         0.0976
     52 H25        -1.5069    0.4152   -3.0690 H         1 <0>         0.0823
     53 H26        -1.5962   -1.3178   -3.4656 H         1 <0>         0.0889
     54 H27        -1.8981   -0.7694   -1.7993 H         1 <0>         0.0731
@<TRIPOS>BOND
     1    1    2 1
     2    1   28 1
     3    1   29 1
     4    1   30 1
     5    2    3 1
     6    2   31 1
     7    2   32 1
     8    3    7 1
     9    3    4 1
    10    4    5 2
    11    4   27 1
    12    5    6 1
    13    5    9 1
    14    6    7 2
    15    6    8 1
    16    8   33 1
    17    8   34 1
    18    8   35 1
    19    9   10 1
    20    9   36 1
    21    9   37 1
    22   10   11 am
    23   10   38 1
    24   11   12 2
    25   11   13 am
    26   13   14 1
    27   13   39 1
    28   14   19 ar
    29   14   15 ar
    30   15   16 ar
    31   15   40 1
    32   16   17 ar
    33   16   21 1
    34   17   18 ar
    35   17   41 1
    36   18   19 ar
    37   18   42 1
    38   19   20 1
    39   20   43 1
    40   20   44 1
    41   20   45 1
    42   21   22 2
    43   21   23 am
    44   23   24 1
    45   23   46 1
    46   24   26 1
    47   24   25 1
    48   24   47 1
    49   25   26 1
    50   25   48 1
    51   25   49 1
    52   26   50 1
    53   26   51 1
    54   27   52 1
    55   27   53 1
    56   27   54 1
@<TRIPOS>MOLECULE
ZINC13271944
   51    54     0     0     0
SMALL
USER_CHARGES
(2S)-2-[3-[(2-chloro-7-methyl-3-quinolyl)methylsulfanyl]-5-(2-thienyl)-1,2,4-triazol-4-yl]-3-methyl-butanoic acid
@<TRIPOS>ATOM
      1 C1         -0.7657   12.6294    2.1436 C.3       1 <0>        -0.1172
      2 C2         -1.0386   11.2805    1.5295 C.ar      1 <0>        -0.0634
      3 C3         -0.1086   10.7257    0.6527 C.ar      1 <0>        -0.1153
      4 C4         -0.3267    9.5094    0.0810 C.ar      1 <0>        -0.0841
      5 C5         -1.5031    8.8033    0.3795 C.ar      1 <0>        -0.1072
      6 C6         -1.7654    7.5426   -0.1903 C.ar      1 <0>        -0.0230
      7 C7         -2.9296    6.9134    0.1447 C.ar      1 <0>        -0.1122
      8 C8         -3.8227    7.5247    1.0250 C.ar      1 <0>         0.2257
      9 N1         -3.5721    8.6971    1.5578 N.ar      1 <0>        -0.4663
     10 C9         -2.4499    9.3651    1.2710 C.ar      1 <0>         0.1492
     11 C10        -2.1892   10.6237    1.8405 C.ar      1 <0>        -0.0955
     12 Cl1        -5.3006    6.7097    1.4315 Cl        1 <0>        -0.0049
     13 C11        -3.2525    5.5628   -0.4406 C.3       1 <0>        -0.0909
     14 S1         -2.5955    4.2655    0.6372 S.3       1 <0>         0.0640
     15 C12        -3.1015    2.8364   -0.2607 C.2       1 <0>         0.1701
     16 N2         -3.7691    2.8232   -1.3919 N.2       1 <0>        -0.2973
     17 N3         -3.9733    1.6126   -1.7714 N.2       1 <0>        -0.2632
     18 C13        -3.4425    0.7758   -0.9071 C.2       1 <0>         0.2524
     19 N4         -2.8728    1.5350    0.0908 N.pl3     1 <0>        -0.4103
     20 C14        -2.1642    1.0497    1.2777 C.3       1 <0>         0.0847
     21 H1         -2.1494   -0.0402    1.2717 H         1 <0>         0.1017
     22 C15        -0.7288    1.5792    1.2668 C.3       1 <0>        -0.0916
     23 C16        -0.0127    1.0858    0.0080 C.3       1 <0>        -0.1497
     24 C17         0.0111    1.0724    2.5063 C.3       1 <0>        -0.1502
     25 C18        -2.8696    1.5357    2.5176 C.2       1 <0>         0.4622
     26 O1         -2.2843    2.2339    3.3111 O.co2     1 <0>        -0.5959
     27 C19        -3.4573   -0.6937   -0.9890 C.2       1 <0>        -0.0709
     28 C20        -4.2294   -1.5080   -1.7785 C.2       1 <0>        -0.1182
     29 C21        -4.0617   -2.8713   -1.6843 C.2       1 <0>        -0.1532
     30 C22        -3.1499   -3.3676   -0.8085 C.2       1 <0>        -0.1810
     31 S2         -2.4807   -1.8810   -0.0811 S.3       1 <0>         0.0801
     32 H2         -0.2263   12.4990    3.0818 H         1 <0>         0.0753
     33 H3         -0.1635   13.2256    1.4581 H         1 <0>         0.0695
     34 H4         -1.7099   13.1391    2.3352 H         1 <0>         0.0700
     35 H5          0.7967   11.2680    0.4227 H         1 <0>         0.1295
     36 H6          0.4015    9.0896   -0.5971 H         1 <0>         0.1350
     37 H7         -1.0645    7.0858   -0.8733 H         1 <0>         0.1543
     38 H8         -2.8993   11.0676    2.5225 H         1 <0>         0.1378
     39 H9         -2.8007    5.4775   -1.4288 H         1 <0>         0.1114
     40 H10        -4.3337    5.4523   -0.5246 H         1 <0>         0.1145
     41 H11        -0.7436    2.6691    1.2728 H         1 <0>         0.0873
     42 H12         0.0021   -0.0041    0.0020 H         1 <0>         0.0544
     43 H13         1.0099    1.4631    0.0003 H         1 <0>         0.0606
     44 H14        -0.5399    1.4469   -0.8751 H         1 <0>         0.0453
     45 H15        -0.4990    1.4239    3.4031 H         1 <0>         0.0981
     46 H16         0.0259   -0.0175    2.5003 H         1 <0>         0.0434
     47 H17         1.0337    1.4497    2.4986 H         1 <0>         0.0516
     48 H18        -4.9518   -1.0878   -2.4626 H         1 <0>         0.1438
     49 H19        -4.6514   -3.5381   -2.2958 H         1 <0>         0.1379
     50 H20        -2.8953   -4.3971   -0.6044 H         1 <0>         0.1879
     51 O2         -4.1481    1.1928    2.7403 O.co2     1 <0>        -0.7361
@<TRIPOS>BOND
     1    1    2 1
     2    1   32 1
     3    1   33 1
     4    1   34 1
     5    2   11 ar
     6    2    3 ar
     7    3    4 ar
     8    3   35 1
     9    4    5 ar
    10    4   36 1
    11    5   10 ar
    12    5    6 ar
    13    6    7 ar
    14    6   37 1
    15    7    8 ar
    16    7   13 1
    17    8    9 ar
    18    8   12 1
    19    9   10 ar
    20   10   11 ar
    21   11   38 1
    22   13   14 1
    23   13   39 1
    24   13   40 1
    25   14   15 1
    26   15   19 1
    27   15   16 2
    28   16   17 1
    29   17   18 2
    30   18   19 1
    31   18   27 1
    32   19   20 1
    33   20   21 1
    34   20   22 1
    35   20   25 1
    36   22   23 1
    37   22   24 1
    38   22   41 1
    39   23   42 1
    40   23   43 1
    41   23   44 1
    42   24   45 1
    43   24   46 1
    44   24   47 1
    45   25   26 2
    46   25   51 1
    47   27   31 1
    48   27   28 2
    49   28   29 1
    50   28   48 1
    51   29   30 2
    52   29   49 1
    53   30   31 1
    54   30   50 1
@<TRIPOS>MOLECULE
ZINC27904013
   56    60     0     0     0
SMALL
USER_CHARGES
2-(3-benzoyl-4-hydroxy-1,1-dioxo-benzo[e]thiazin-2-yl)-1-(4-phenylphenyl)ethanone
@<TRIPOS>ATOM
      1 C1          3.0992   13.1168    8.3833 C.ar      1 <0>        -0.1210
      2 C2          2.9569   11.7577    8.5985 C.ar      1 <0>        -0.1191
      3 C3          2.7403   10.9067    7.5339 C.ar      1 <0>        -0.1089
      4 C4          2.6646   11.4194    6.2395 C.ar      1 <0>        -0.0442
      5 C5          2.8137   12.7894    6.0283 C.ar      1 <0>        -0.1092
      6 C6          3.0255   13.6311    7.1011 C.ar      1 <0>        -0.1189
      7 C7          2.4327   10.5105    5.0917 C.ar      1 <0>        -0.0301
      8 C8          2.3576   11.0276    3.7975 C.ar      1 <0>        -0.1207
      9 C9          2.1432   10.1890    2.7344 C.ar      1 <0>        -0.0599
     10 C10         1.9990    8.8129    2.9478 C.ar      1 <0>        -0.1445
     11 C11         2.0690    8.2971    4.2474 C.ar      1 <0>        -0.0777
     12 C12         2.2893    9.1390    5.3068 C.ar      1 <0>        -0.1207
     13 C13         1.7685    7.9117    1.8096 C.2       1 <0>         0.3434
     14 O1          1.7031    8.3601    0.6846 O.2       1 <0>        -0.3762
     15 C14         1.6135    6.4306    2.0406 C.3       1 <0>         0.0822
     16 N1          1.3952    5.7566    0.7583 N.pl3     1 <0>        -0.8802
     17 C15         2.4753    5.3701   -0.0551 C.2       1 <0>        -0.2287
     18 C16         2.4171    4.2920   -0.8743 C.2       1 <0>         0.2583
     19 C17         1.2480    3.4147   -1.0026 C.ar      1 <0>         0.0232
     20 C18         1.3721    2.1534   -1.5964 C.ar      1 <0>        -0.0995
     21 C19         0.2672    1.3370   -1.7100 C.ar      1 <0>        -0.0825
     22 C20        -0.9675    1.7565   -1.2456 C.ar      1 <0>        -0.1457
     23 C21        -1.1010    3.0009   -0.6501 C.ar      1 <0>        -0.0310
     24 C22        -0.0070    3.8224   -0.5332 C.ar      1 <0>        -0.6511
     25 S1         -0.1424    5.4193    0.2104 S.o2      1 <0>         2.6828
     26 O2         -0.9703    5.2758    1.3564 O.2       1 <0>        -0.9749
     27 O3         -0.4245    6.3428   -0.8321 O.2       1 <0>        -0.9474
     28 O4          3.5087    4.0058   -1.6226 O.3       1 <0>        -0.6639
     29 C23         3.6657    6.1346   -0.0171 C.2       1 <0>         0.4754
     30 O5          3.6198    7.3417   -0.1770 O.2       1 <0>        -0.4765
     31 C24         4.9653    5.4683    0.2166 C.ar      1 <0>        -0.1183
     32 C25         5.0104    4.1065    0.5203 C.ar      1 <0>        -0.0238
     33 C26         6.2263    3.4901    0.7319 C.ar      1 <0>        -0.1488
     34 C27         7.3987    4.2210    0.6547 C.ar      1 <0>        -0.1101
     35 C28         7.3606    5.5725    0.3598 C.ar      1 <0>        -0.1482
     36 C29         6.1519    6.1999    0.1402 C.ar      1 <0>        -0.0805
     37 H1          3.2689   13.7789    9.2195 H         1 <0>         0.1211
     38 H2          3.0157   11.3618    9.6016 H         1 <0>         0.1235
     39 H3          2.6300    9.8458    7.7030 H         1 <0>         0.1273
     40 H4          2.7601   13.1916    5.0274 H         1 <0>         0.1267
     41 H5          3.1374   14.6930    6.9392 H         1 <0>         0.1233
     42 H6          2.4688   12.0893    3.6334 H         1 <0>         0.1285
     43 H7          2.0851   10.5897    1.7331 H         1 <0>         0.1368
     44 H8          1.9540    7.2364    4.4148 H         1 <0>         0.1355
     45 H9          2.3474    8.7411    6.3092 H         1 <0>         0.1298
     46 H10         2.5256    6.0356    2.5119 H         1 <0>         0.1120
     47 H11         0.7522    6.2506    2.7008 H         1 <0>         0.1179
     48 H12         2.3311    1.8207   -1.9651 H         1 <0>         0.1403
     49 H13         0.3648    0.3643   -2.1690 H         1 <0>         0.1255
     50 H14        -1.8277    1.1108   -1.3434 H         1 <0>         0.1270
     51 H15        -2.0638    3.3257   -0.2841 H         1 <0>         0.1295
     52 H16         4.0958    3.5358    0.5849 H         1 <0>         0.1291
     53 H17         6.2629    2.4358    0.9629 H         1 <0>         0.1148
     54 H18         8.3477    3.7347    0.8257 H         1 <0>         0.1124
     55 H19         8.2793    6.1372    0.3010 H         1 <0>         0.1143
     56 H20         6.1235    7.2547   -0.0899 H         1 <0>         0.1213
@<TRIPOS>BOND
     1    1    6 ar
     2    1    2 ar
     3    1   37 1
     4    2    3 ar
     5    2   38 1
     6    3    4 ar
     7    3   39 1
     8    4    5 ar
     9    4    7 1
    10    5    6 ar
    11    5   40 1
    12    6   41 1
    13    7   12 ar
    14    7    8 ar
    15    8    9 ar
    16    8   42 1
    17    9   10 ar
    18    9   43 1
    19   10   11 ar
    20   10   13 1
    21   11   12 ar
    22   11   44 1
    23   12   45 1
    24   13   14 2
    25   13   15 1
    26   15   16 1
    27   15   46 1
    28   15   47 1
    29   16   25 1
    30   16   17 1
    31   17   18 2
    32   17   29 1
    33   18   19 1
    34   18   28 1
    35   19   24 ar
    36   19   20 ar
    37   20   21 ar
    38   20   48 1
    39   21   22 ar
    40   21   49 1
    41   22   23 ar
    42   22   50 1
    43   23   24 ar
    44   23   51 1
    45   24   25 1
    46   25   26 2
    47   25   27 2
    48   29   30 2
    49   29   31 1
    50   31   36 ar
    51   31   32 ar
    52   32   33 ar
    53   32   52 1
    54   33   34 ar
    55   33   53 1
    56   34   35 ar
    57   34   54 1
    58   35   36 ar
    59   35   55 1
    60   36   56 1
@<TRIPOS>MOLECULE
ZINC36071860
   59    62     0     0     0
SMALL
USER_CHARGES

@<TRIPOS>ATOM
      1 C1          0.1613    1.3030   -0.3258 C.3       1 <0>        -0.0911
      2 C2          0.1511   -0.2031   -0.2760 C.2       1 <0>         0.2984
      3 C3         -1.0477   -0.8771   -0.1424 C.2       1 <0>        -0.3886
      4 C4         -1.0058   -2.3883   -0.0978 C.3       1 <0>         0.2760
      5 H1         -1.4604   -2.7090    0.8395 H         1 <0>         0.0708
      6 N1          0.3310   -3.0316   -0.2020 N.pl3     1 <0>        -0.5125
      7 C5          0.6058   -4.3845   -0.1847 C.2       1 <0>         0.2333
      8 C6          1.8984   -4.7631   -0.2937 C.2       1 <0>        -0.3039
      9 S1          2.7325   -3.1939   -0.4217 S.3       1 <0>         0.1408
     10 C7          1.3955   -2.1836   -0.3287 C.2       1 <0>         0.3197
     11 N2          1.2895   -0.8712   -0.3660 N.2       1 <0>        -0.5962
     12 C8         -0.4696   -5.3779   -0.0520 C.2       1 <0>        -0.4671
     13 C9         -0.1671   -6.6807    0.1066 C.2       1 <0>         0.5027
     14 O1          1.1224   -7.0609    0.2790 O.3       1 <0>        -0.6995
     15 N3         -1.1734   -7.6317    0.0937 N.pl3     1 <0>        -0.6301
     16 C10        -2.5768   -7.2127    0.0614 C.3       1 <0>         0.1070
     17 C11        -0.8347   -9.0569    0.1122 C.3       1 <0>         0.1705
     18 C12        -0.8778   -9.5650    1.5303 C.ar      1 <0>        -0.0917
     19 C13         0.2286   -9.4279    2.3475 C.ar      1 <0>        -0.0874
     20 C14         0.1891   -9.8940    3.6483 C.ar      1 <0>        -0.1277
     21 C15        -0.9569  -10.4969    4.1320 C.ar      1 <0>        -0.1290
     22 C16        -2.0637  -10.6332    3.3150 C.ar      1 <0>        -0.1317
     23 C17        -2.0256  -10.1633    2.0156 C.ar      1 <0>        -0.1169
     24 C18        -1.8598   -2.9095   -1.2249 C.2       1 <0>        -0.1055
     25 C19        -3.0985   -3.4660   -0.9669 C.2       1 <0>        -0.1036
     26 C20        -3.8415   -3.9254   -2.0033 C.2       1 <0>        -0.1860
     27 S2         -2.7850   -3.5747   -3.3990 S.3       1 <0>         0.0104
     28 C21        -1.4271   -2.8345   -2.5072 C.2       1 <0>        -0.1487
     29 C22        -2.2609   -0.1841   -0.0509 C.2       1 <0>         0.5364
     30 O2         -2.2712    1.0341   -0.0886 O.2       1 <0>        -0.5509
     31 O3         -3.4204   -0.8659    0.0793 O.3       1 <0>        -0.3456
     32 C23        -4.6202   -0.0946    0.1671 C.3       1 <0>         0.0826
     33 C24        -5.1827    0.1350   -1.2371 C.3       1 <0>        -0.1652
     34 C25        -5.6497   -0.8475    1.0121 C.3       1 <0>        -0.1469
     35 H2          1.1865    1.6559   -0.4378 H         1 <0>         0.0633
     36 H3         -0.4344    1.6426   -1.1731 H         1 <0>         0.0856
     37 H4         -0.2608    1.7000    0.5974 H         1 <0>         0.0857
     38 H5          2.3172   -5.7586   -0.3007 H         1 <0>         0.2322
     39 H6         -1.5022   -5.0630   -0.0817 H         1 <0>         0.0982
     40 H7         -2.9038   -7.1171   -0.9740 H         1 <0>         0.0360
     41 H8         -3.1901   -7.9573    0.5688 H         1 <0>         0.0463
     42 H9         -2.6808   -6.2518    0.5654 H         1 <0>         0.0621
     43 H10        -1.5533   -9.6090   -0.4936 H         1 <0>         0.0595
     44 H11         0.1669   -9.1976   -0.2939 H         1 <0>         0.0882
     45 H12         1.1240   -8.9568    1.9697 H         1 <0>         0.1362
     46 H13         1.0538   -9.7874    4.2866 H         1 <0>         0.1161
     47 H14        -0.9875  -10.8617    5.1481 H         1 <0>         0.1135
     48 H15        -2.9589  -11.1046    3.6928 H         1 <0>         0.1139
     49 H16        -2.8916  -10.2665    1.3785 H         1 <0>         0.1138
     50 H17        -3.4687   -3.5340    0.0454 H         1 <0>         0.1280
     51 H18        -4.8188   -4.3847   -1.9886 H         1 <0>         0.1782
     52 H19        -0.5007   -2.4323   -2.8900 H         1 <0>         0.1664
     53 H20        -4.4011    0.8664    0.6324 H         1 <0>         0.0760
     54 H21        -4.4492    0.6714   -1.8391 H         1 <0>         0.0585
     55 H22        -5.4018   -0.8260   -1.7024 H         1 <0>         0.0619
     56 H23        -6.0979    0.7233   -1.1702 H         1 <0>         0.0636
     57 H24        -5.2490   -1.0111    2.0124 H         1 <0>         0.0603
     58 H25        -6.5649   -0.2592    1.0790 H         1 <0>         0.0694
     59 H26        -5.8688   -1.8085    0.5468 H         1 <0>         0.0642
@<TRIPOS>BOND
     1    1    2 1
     2    1   35 1
     3    1   36 1
     4    1   37 1
     5    2   11 1
     6    2    3 2
     7    3    4 1
     8    3   29 1
     9    4    5 1
    10    4    6 1
    11    4   24 1
    12    6   10 1
    13    6    7 1
    14    7    8 2
    15    7   12 1
    16    8    9 1
    17    8   38 1
    18    9   10 1
    19   10   11 2
    20   12   13 2
    21   12   39 1
    22   13   14 1
    23   13   15 1
    24   15   16 1
    25   15   17 1
    26   16   40 1
    27   16   41 1
    28   16   42 1
    29   17   18 1
    30   17   43 1
    31   17   44 1
    32   18   23 ar
    33   18   19 ar
    34   19   20 ar
    35   19   45 1
    36   20   21 ar
    37   20   46 1
    38   21   22 ar
    39   21   47 1
    40   22   23 ar
    41   22   48 1
    42   23   49 1
    43   24   28 2
    44   24   25 1
    45   25   26 2
    46   25   50 1
    47   26   27 1
    48   26   51 1
    49   27   28 1
    50   28   52 1
    51   29   30 2
    52   29   31 1
    53   31   32 1
    54   32   33 1
    55   32   34 1
    56   32   53 1
    57   33   54 1
    58   33   55 1
    59   33   56 1
    60   34   57 1
    61   34   58 1
    62   34   59 1
@<TRIPOS>MOLECULE
ZINC39998159
   42    44     0     0     0
SMALL
USER_CHARGES

@<TRIPOS>ATOM
      1 C1         -0.0187    1.5258    0.0104 C.3       1 <0>        -0.1459
      2 C2          0.0021   -0.0041    0.0020 C.3       1 <0>        -0.1071
      3 C3         -1.4333   -0.5336    0.0129 C.3       1 <0>        -0.1042
      4 S1         -1.4087   -2.3475    0.0029 S.3       1 <0>        -0.0115
      5 C4         -3.1124   -2.7969    0.0168 C.2       1 <0>        -0.0623
      6 N1         -4.1954   -2.0309    0.0253 N.2       1 <0>        -0.2438
      7 N2         -5.3583   -2.5191    0.0344 N.2       1 <0>        -0.3409
      8 C5         -5.5663   -3.8336    0.0360 C.2       1 <0>         0.3636
      9 S2         -3.8738   -4.4174    0.0153 S.3       1 <0>        -0.0625
     10 N3         -6.7305   -4.5328    0.0450 N.2       1 <0>        -0.5994
     11 C6         -7.8814   -3.8945    0.0536 C.2       1 <0>         0.4644
     12 O1         -7.9047   -2.5412    0.0533 O.3       1 <0>        -0.6249
     13 C7         -9.1386   -4.6496    0.0634 C.2       1 <0>        -0.0105
     14 C8        -10.3517   -3.9768    0.0724 C.2       1 <0>         0.0165
     15 C9        -11.5564   -4.7004    0.0818 C.2       1 <0>         0.0080
     16 C10       -12.8321   -4.1563    0.0858 C.2       1 <0>        -0.1564
     17 C11       -13.7267   -5.2266    0.0947 C.2       1 <0>        -0.1830
     18 C12       -12.9746   -6.3815    0.0959 C.2       1 <0>         0.0305
     19 O2        -11.6723   -6.0455    0.0826 O.3       1 <0>        -0.1494
     20 C13       -13.5087   -7.7566    0.1047 C.ar      1 <0>         0.0005
     21 C14       -14.8893   -7.9733    0.1071 C.ar      1 <0>        -0.0924
     22 C15       -15.3818   -9.2611    0.1155 C.ar      1 <0>        -0.0885
     23 C16       -14.5118  -10.3386    0.1215 C.ar      1 <0>        -0.0878
     24 C17       -13.1425  -10.1310    0.1196 C.ar      1 <0>        -0.0850
     25 C18       -12.6365   -8.8484    0.1050 C.ar      1 <0>        -0.0926
     26 Br1       -15.1965  -12.1012    0.1330 Br        1 <0>        -0.0502
     27 C19        -9.1139   -6.0814    0.0637 C.1       1 <0>         0.2709
     28 N4         -9.0943   -7.2172    0.0639 N.1       1 <0>        -0.4181
     29 H1          1.0039    1.9031    0.0027 H         1 <0>         0.0583
     30 H2         -0.5459    1.8868   -0.8726 H         1 <0>         0.0573
     31 H3         -0.5289    1.8773    0.9072 H         1 <0>         0.0573
     32 H4          0.5123   -0.3556   -0.8948 H         1 <0>         0.0711
     33 H5          0.5293   -0.3651    0.8851 H         1 <0>         0.0711
     34 H6         -1.9435   -0.1821    0.9097 H         1 <0>         0.0898
     35 H7         -1.9605   -0.1726   -0.8702 H         1 <0>         0.0899
     36 H8        -10.3703   -2.8970    0.0722 H         1 <0>         0.1857
     37 H9        -13.0843   -3.1062    0.0829 H         1 <0>         0.1646
     38 H10       -14.8048   -5.1624    0.0997 H         1 <0>         0.1572
     39 H11       -15.5689   -7.1339    0.1028 H         1 <0>         0.1393
     40 H12       -16.4486   -9.4300    0.1177 H         1 <0>         0.1389
     41 H13       -12.4695  -10.9757    0.1247 H         1 <0>         0.1383
     42 H14       -11.5685   -8.6880    0.0984 H         1 <0>         0.1430
@<TRIPOS>BOND
     1    1    2 1
     2    1   29 1
     3    1   30 1
     4    1   31 1
     5    2    3 1
     6    2   32 1
     7    2   33 1
     8    3    4 1
     9    3   34 1
    10    3   35 1
    11    4    5 1
    12    5    9 1
    13    5    6 2
    14    6    7 1
    15    7    8 2
    16    8    9 1
    17    8   10 1
    18   10   11 2
    19   11   12 1
    20   11   13 1
    21   13   14 2
    22   13   27 1
    23   14   15 1
    24   14   36 1
    25   15   19 1
    26   15   16 2
    27   16   17 1
    28   16   37 1
    29   17   18 2
    30   17   38 1
    31   18   19 1
    32   18   20 1
    33   20   25 ar
    34   20   21 ar
    35   21   22 ar
    36   21   39 1
    37   22   23 ar
    38   22   40 1
    39   23   24 ar
    40   23   26 1
    41   24   25 ar
    42   24   41 1
    43   25   42 1
    44   27   28 3
@<TRIPOS>MOLECULE
ZINC59860447
   52    54     0     0     0
SMALL
USER_CHARGES

@<TRIPOS>ATOM
      1 C1          6.0048   -1.2419   -1.6399 C.3       1 <0>        -0.1518
      2 C2          4.9446   -2.3012   -1.3322 C.3       1 <0>        -0.1204
      3 C3          4.6734   -2.3289    0.1733 C.3       1 <0>        -0.1214
      4 C4          3.6132   -3.3882    0.4811 C.3       1 <0>         0.0603
      5 O1          3.3599   -3.4142    1.8872 O.3       1 <0>        -0.3125
      6 C5          2.4388   -4.3046    2.3303 C.ar      1 <0>         0.1587
      7 C6          1.7927   -5.1431    1.4351 C.ar      1 <0>        -0.2326
      8 C7          0.8550   -6.0500    1.8876 C.ar      1 <0>        -0.0586
      9 C8          0.5491   -6.1328    3.2384 C.ar      1 <0>        -0.1739
     10 C9          1.1765   -5.3111    4.1454 C.ar      1 <0>         0.0412
     11 C10         2.1368   -4.3872    3.7035 C.ar      1 <0>        -0.1137
     12 C11         2.7935   -3.5402    4.6317 C.2       1 <0>         0.0796
     13 C12         3.3580   -4.0750    5.7789 C.2       1 <0>        -0.2584
     14 C13         3.4943   -5.5285    5.9633 C.2       1 <0>         0.4956
     15 O2          3.0705   -6.3877    5.0128 O.3       1 <0>        -0.6177
     16 N1          4.0418   -5.9732    7.0813 N.2       1 <0>        -0.6603
     17 C14         4.4691   -5.1496    8.0354 C.2       1 <0>         0.6693
     18 O3          4.9630   -5.6362    9.0371 O.2       1 <0>        -0.5634
     19 N2          4.3862   -3.8136    7.9549 N.am      1 <0>        -0.5512
     20 C15         3.8554   -3.2122    6.8686 C.2       1 <0>         0.5671
     21 O4          3.7848   -1.9998    6.7927 O.2       1 <0>        -0.5180
     22 C16         4.8637   -3.0285    9.0130 C.ar      1 <0>         0.1759
     23 C17         6.1839   -2.5979    9.0190 C.ar      1 <0>        -0.0995
     24 C18         6.6519   -1.8244   10.0627 C.ar      1 <0>        -0.0856
     25 C19         5.8067   -1.4787   11.1025 C.ar      1 <0>        -0.0893
     26 C20         4.4911   -1.9063   11.0990 C.ar      1 <0>        -0.0538
     27 C21         4.0162   -2.6751   10.0542 C.ar      1 <0>        -0.0623
     28 C22         2.5811   -3.1350   10.0477 C.3       1 <0>        -0.1107
     29 C23         3.5734   -1.5279   12.2329 C.3       1 <0>        -0.1213
     30 Br1         6.4514   -0.4204   12.5309 Br        1 <0>        -0.0575
     31 H1          6.9256   -1.4844   -1.1093 H         1 <0>         0.0561
     32 H2          6.1981   -1.2221   -2.7125 H         1 <0>         0.0550
     33 H3          5.6462   -0.2644   -1.3173 H         1 <0>         0.0555
     34 H4          4.0239   -2.0586   -1.8628 H         1 <0>         0.0636
     35 H5          5.3033   -3.2786   -1.6548 H         1 <0>         0.0643
     36 H6          5.5941   -2.5715    0.7040 H         1 <0>         0.0745
     37 H7          4.3148   -1.3515    0.4960 H         1 <0>         0.0737
     38 H8          2.6925   -3.1457   -0.0495 H         1 <0>         0.0607
     39 H9          3.9718   -4.3657    0.1585 H         1 <0>         0.0614
     40 H10         2.0231   -5.0867    0.3815 H         1 <0>         0.1222
     41 H11         0.3554   -6.6999    1.1845 H         1 <0>         0.1182
     42 H12        -0.1863   -6.8464    3.5795 H         1 <0>         0.1201
     43 H13         0.9344   -5.3795    5.1957 H         1 <0>         0.1234
     44 H14         2.8539   -2.4782    4.4447 H         1 <0>         0.1350
     45 H15         6.8441   -2.8681    8.2081 H         1 <0>         0.1303
     46 H16         7.6786   -1.4893   10.0678 H         1 <0>         0.1347
     47 H17         2.5055   -4.0968   10.5550 H         1 <0>         0.0778
     48 H18         1.9623   -2.4018   10.5649 H         1 <0>         0.0716
     49 H19         2.2376   -3.2391    9.0185 H         1 <0>         0.0627
     50 H20         3.0770   -0.5859   11.9998 H         1 <0>         0.0760
     51 H21         2.8253   -2.3085   12.3708 H         1 <0>         0.0738
     52 H22         4.1543   -1.4156   13.1484 H         1 <0>         0.0757
@<TRIPOS>BOND
     1    1    2 1
     2    1   31 1
     3    1   32 1
     4    1   33 1
     5    2    3 1
     6    2   34 1
     7    2   35 1
     8    3    4 1
     9    3   36 1
    10    3   37 1
    11    4    5 1
    12    4   38 1
    13    4   39 1
    14    5    6 1
    15    6   11 ar
    16    6    7 ar
    17    7    8 ar
    18    7   40 1
    19    8    9 ar
    20    8   41 1
    21    9   10 ar
    22    9   42 1
    23   10   11 ar
    24   10   43 1
    25   11   12 1
    26   12   13 2
    27   12   44 1
    28   13   20 1
    29   13   14 1
    30   14   15 1
    31   14   16 2
    32   16   17 1
    33   17   18 2
    34   17   19 am
    35   19   20 am
    36   19   22 1
    37   20   21 2
    38   22   27 ar
    39   22   23 ar
    40   23   24 ar
    41   23   45 1
    42   24   25 ar
    43   24   46 1
    44   25   26 ar
    45   25   30 1
    46   26   27 ar
    47   26   29 1
    48   27   28 1
    49   28   47 1
    50   28   48 1
    51   28   49 1
    52   29   50 1
    53   29   51 1
    54   29   52 1
@<TRIPOS>MOLECULE
ZINC19396030
   41    42     0     0     0
SMALL
USER_CHARGES
(2R)-N-(4-amino-2-methyl-phenyl)-2-(4-methylphenoxy)propanamide
@<TRIPOS>ATOM
      1 C1        -10.2230   10.4340   -1.4690 C.3       1 <0>        -0.1136
      2 C2         -9.0864    9.5593   -1.0065 C.ar      1 <0>        -0.1234
      3 C3         -7.9247   10.1342   -0.5252 C.ar      1 <0>        -0.0786
      4 C4         -6.8813    9.3345   -0.1007 C.ar      1 <0>        -0.1441
      5 C5         -6.9998    7.9534   -0.1576 C.ar      1 <0>         0.1248
      6 C6         -8.1642    7.3790   -0.6462 C.ar      1 <0>        -0.2099
      7 C7         -9.2068    8.1831   -1.0646 C.ar      1 <0>        -0.0794
      8 O1         -5.9748    7.1646    0.2595 O.3       1 <0>        -0.2895
      9 C8         -6.2051    5.7543    0.2722 C.3       1 <0>         0.0662
     10 H1         -6.8397    5.5386   -0.6000 H         1 <0>         0.1024
     11 C9         -6.8913    5.3614    1.5820 C.3       1 <0>        -0.1743
     12 C10        -4.8890    5.0293    0.1574 C.2       1 <0>         0.5170
     13 O2         -3.8496    5.6545    0.1644 O.2       1 <0>        -0.5011
     14 N1         -4.8668    3.6863    0.0469 N.am      1 <0>        -0.6708
     15 C11        -3.6436    3.0023    0.0587 C.ar      1 <0>         0.0846
     16 C12        -2.5366    3.5701    0.6756 C.ar      1 <0>        -0.0754
     17 C13        -1.3333    2.8938    0.6928 C.ar      1 <0>        -0.1893
     18 C14        -1.2265    1.6509    0.0818 C.ar      1 <0>         0.2162
     19 C15        -2.3336    1.0834   -0.5354 C.ar      1 <0>        -0.1872
     20 C16        -3.5387    1.7573   -0.5466 C.ar      1 <0>        -0.0634
     21 C17        -4.7401    1.1415   -1.2163 C.3       1 <0>        -0.1174
     22 N2         -0.0055    0.9683    0.0932 N.pl3     1 <0>        -0.9010
     23 H2         -9.9447   11.4913   -1.3479 H         1 <0>         0.0654
     24 H3        -11.1189   10.2194   -0.8678 H         1 <0>         0.0681
     25 H4        -10.4350   10.2297   -2.5289 H         1 <0>         0.0681
     26 H5         -7.8331   11.2094   -0.4808 H         1 <0>         0.1303
     27 H6         -5.9742    9.7841    0.2755 H         1 <0>         0.1324
     28 H7         -8.2572    6.3042   -0.6957 H         1 <0>         0.1292
     29 H8        -10.1152    7.7364   -1.4410 H         1 <0>         0.1253
     30 H9         -7.0686    4.2758    1.5918 H         1 <0>         0.0803
     31 H10        -7.8520    5.8906    1.6657 H         1 <0>         0.0785
     32 H11        -6.2467    5.6353    2.4302 H         1 <0>         0.0777
     33 H12        -5.8087    3.1270   -0.0526 H         1 <0>         0.4289
     34 H13        -2.6183    4.5388    1.1461 H         1 <0>         0.1422
     35 H14        -0.4737    3.3331    1.1770 H         1 <0>         0.1207
     36 H15        -2.2520    0.1149   -1.0063 H         1 <0>         0.1214
     37 H16        -4.4646    0.1624   -1.6353 H         1 <0>         0.0703
     38 H17        -5.0878    1.8016   -2.0246 H         1 <0>         0.0696
     39 H18        -5.5448    1.0110   -0.4778 H         1 <0>         0.0682
     40 H19         0.0789   -0.0159   -0.3907 H         1 <0>         0.4146
     41 H20         0.8702    1.4158    0.5861 H         1 <0>         0.4159
@<TRIPOS>BOND
     1    1    2 1
     2    1   23 1
     3    1   24 1
     4    1   25 1
     5    2    7 ar
     6    2    3 ar
     7    3    4 ar
     8    3   26 1
     9    4    5 ar
    10    4   27 1
    11    5    6 ar
    12    5    8 1
    13    6    7 ar
    14    6   28 1
    15    7   29 1
    16    8    9 1
    17    9   10 1
    18    9   11 1
    19    9   12 1
    20   11   30 1
    21   11   31 1
    22   11   32 1
    23   12   13 2
    24   12   14 am
    25   14   15 1
    26   14   33 1
    27   15   20 ar
    28   15   16 ar
    29   16   17 ar
    30   16   34 1
    31   17   18 ar
    32   17   35 1
    33   18   19 ar
    34   18   22 1
    35   19   20 ar
    36   19   36 1
    37   20   21 1
    38   21   37 1
    39   21   38 1
    40   21   39 1
    41   22   40 1
    42   22   41 1
@<TRIPOS>MOLECULE
ZINC36934919
   43    44     0     0     0
SMALL
USER_CHARGES

@<TRIPOS>ATOM
      1 C1          0.0153    1.5032    0.0099 C.3       1 <0>        -0.1067
      2 C2          0.0194   -0.0037    0.0018 C.ar      1 <0>        -0.1132
      3 C3          0.0220   -0.6878   -1.1981 C.ar      1 <0>        -0.1491
      4 C4          0.0263   -2.0762   -1.2055 C.ar      1 <0>         0.1657
      5 C5          0.0279   -2.7771   -0.0066 C.ar      1 <0>        -0.1555
      6 C6          0.0249   -2.0932    1.1929 C.ar      1 <0>        -0.1454
      7 C7          0.0264   -0.7044    1.2004 C.ar      1 <0>         0.1660
      8 N1          0.0297   -0.0109    2.4165 N.pl3     1 <0>        -0.7502
      9 C8          0.0371   -0.7502    3.6813 C.3       1 <0>         0.2017
     10 H1          0.6285   -1.6587    3.5676 H         1 <0>         0.0870
     11 C9         -1.3973   -1.1201    4.0642 C.3       1 <0>        -0.1613
     12 C10         0.6397    0.1096    4.7623 C.ar      1 <0>        -0.1212
     13 C11         0.5999    1.4866    4.6517 C.ar      1 <0>        -0.0832
     14 C12         1.1515    2.2775    5.6410 C.ar      1 <0>        -0.1474
     15 C13         1.7473    1.6907    6.7487 C.ar      1 <0>         0.1218
     16 C14         1.7886    0.3098    6.8619 C.ar      1 <0>        -0.1683
     17 C15         1.2292   -0.4818    5.8704 C.ar      1 <0>         0.1319
     18 O1          1.2628   -1.8358    5.9815 O.3       1 <0>        -0.4922
     19 O2          2.2901    2.4692    7.7213 O.3       1 <0>        -0.4972
     20 N2          0.0284   -2.7696   -2.4217 N.pl3     1 <0>        -0.6451
     21 C16        -0.1002   -2.0362   -3.6834 C.3       1 <0>         0.0982
     22 C17         0.1593   -4.2287   -2.4328 C.3       1 <0>         0.0932
     23 H2          1.0419    1.8694    0.0075 H         1 <0>         0.0665
     24 H3         -0.5033    1.8699   -0.8759 H         1 <0>         0.0662
     25 H4         -0.4957    1.8604    0.9040 H         1 <0>         0.0573
     26 H5          0.0203   -0.1428   -2.1304 H         1 <0>         0.1205
     27 H6          0.0313   -3.8570   -0.0124 H         1 <0>         0.1220
     28 H7          0.0255   -2.6382    2.1252 H         1 <0>         0.1208
     29 H8          0.0270    0.9591    2.4218 H         1 <0>         0.3946
     30 H9         -1.9888   -0.2116    4.1779 H         1 <0>         0.0569
     31 H10        -1.8332   -1.7420    3.2824 H         1 <0>         0.0639
     32 H11        -1.3918   -1.6702    5.0052 H         1 <0>         0.0676
     33 H12         0.1370    1.9451    3.7904 H         1 <0>         0.1285
     34 H13         1.1194    3.3534    5.5522 H         1 <0>         0.1338
     35 H14         2.2517   -0.1487    7.7231 H         1 <0>         0.1374
     36 H15         2.0489   -2.2430    5.5924 H         1 <0>         0.3933
     37 H16         1.6719    2.7064    8.4261 H         1 <0>         0.3946
     38 H17         0.8901   -1.7622   -4.0470 H         1 <0>         0.0436
     39 H18        -0.5966   -2.6666   -4.4212 H         1 <0>         0.0629
     40 H19        -0.6899   -1.1340   -3.5207 H         1 <0>         0.0649
     41 H20         0.1526   -4.6019   -1.4086 H         1 <0>         0.0754
     42 H21        -0.6745   -4.6642   -2.9835 H         1 <0>         0.0520
     43 H22         1.0970   -4.5058   -2.9143 H         1 <0>         0.0480
@<TRIPOS>BOND
     1    1    2 1
     2    1   23 1
     3    1   24 1
     4    1   25 1
     5    2    7 ar
     6    2    3 ar
     7    3    4 ar
     8    3   26 1
     9    4    5 ar
    10    4   20 1
    11    5    6 ar
    12    5   27 1
    13    6    7 ar
    14    6   28 1
    15    7    8 1
    16    8    9 1
    17    8   29 1
    18    9   10 1
    19    9   11 1
    20    9   12 1
    21   11   30 1
    22   11   31 1
    23   11   32 1
    24   12   17 ar
    25   12   13 ar
    26   13   14 ar
    27   13   33 1
    28   14   15 ar
    29   14   34 1
    30   15   16 ar
    31   15   19 1
    32   16   17 ar
    33   16   35 1
    34   17   18 1
    35   18   36 1
    36   19   37 1
    37   20   21 1
    38   20   22 1
    39   21   38 1
    40   21   39 1
    41   21   40 1
    42   22   41 1
    43   22   42 1
    44   22   43 1
@<TRIPOS>MOLECULE
ZINC41704000
   44    45     0     0     0
SMALL
USER_CHARGES

@<TRIPOS>ATOM
      1 C1         -0.0016    1.5375    0.0125 C.3       1 <0>        -0.1478
      2 C2          0.0088    0.0076    0.0006 C.3       1 <0>        -0.1001
      3 H1          0.5185   -0.3453   -0.8959 H         1 <0>         0.0880
      4 C3         -1.4302   -0.5122    0.0071 C.3       1 <0>        -0.1151
      5 C4         -1.4198   -2.0421   -0.0049 C.3       1 <0>        -0.1220
      6 C5         -0.6860   -2.5569    1.2351 C.3       1 <0>        -0.1175
      7 C6          0.7529   -2.0370    1.2286 C.3       1 <0>        -0.1332
      8 C7          0.7426   -0.5071    1.2405 C.3       1 <0>         0.1696
      9 H2          1.7677   -0.1368    1.2359 H         1 <0>         0.0903
     10 N1          0.0575   -0.0328    2.4454 N.am      1 <0>        -0.7305
     11 C8          0.7374    0.0915    3.6025 C.2       1 <0>         0.7041
     12 O1          1.9194   -0.1900    3.6462 O.2       1 <0>        -0.5715
     13 N2          0.1071    0.5278    4.7110 N.am      1 <0>        -0.6883
     14 C9          0.7870    0.5651    5.9336 C.ar      1 <0>         0.1640
     15 C10         0.1114    0.2859    7.1142 C.ar      1 <0>        -0.1443
     16 C11         0.7853    0.3231    8.3192 C.ar      1 <0>        -0.0912
     17 C12         2.1314    0.6380    8.3508 C.ar      1 <0>        -0.1332
     18 C13         2.8069    0.9170    7.1769 C.ar      1 <0>        -0.0942
     19 C14         2.1400    0.8759    5.9682 C.ar      1 <0>        -0.1142
     20 C15         2.8636    0.6777    9.6673 C.3       1 <0>         0.1448
     21 H3          2.1452    0.7885   10.4795 H         1 <0>         0.1064
     22 C16         3.6479   -0.6227    9.8541 C.3       1 <0>        -0.1817
     23 O2          3.7674    1.7845    9.6765 O.3       1 <0>        -0.5575
     24 H4          1.0235    1.9079    0.0079 H         1 <0>         0.0573
     25 H5         -0.5244    1.9043   -0.8708 H         1 <0>         0.0583
     26 H6         -0.5114    1.8904    0.9090 H         1 <0>         0.0536
     27 H7         -1.9400   -0.1593    0.9036 H         1 <0>         0.0580
     28 H8         -1.9530   -0.1455   -0.8763 H         1 <0>         0.0677
     29 H9         -2.4450   -2.4125   -0.0002 H         1 <0>         0.0629
     30 H10        -0.9101   -2.3950   -0.9014 H         1 <0>         0.0646
     31 H11        -1.1958   -2.2040    2.1316 H         1 <0>         0.0592
     32 H12        -0.6786   -3.6468    1.2265 H         1 <0>         0.0620
     33 H13         1.2757   -2.4037    2.1119 H         1 <0>         0.0691
     34 H14         1.2627   -2.3899    0.3320 H         1 <0>         0.0731
     35 H15        -0.8855    0.1918    2.4105 H         1 <0>         0.3956
     36 H16        -0.8178    0.8160    4.6613 H         1 <0>         0.4060
     37 H17        -0.9401    0.0402    7.0903 H         1 <0>         0.1257
     38 H18         0.2603    0.1063    9.2378 H         1 <0>         0.1273
     39 H19         3.8582    1.1630    7.2049 H         1 <0>         0.1222
     40 H20         2.6692    1.0892    5.0512 H         1 <0>         0.1421
     41 H21         4.3664   -0.7335    9.0420 H         1 <0>         0.0603
     42 H22         4.1775   -0.5940   10.8064 H         1 <0>         0.0677
     43 H23         2.9585   -1.4670    9.8471 H         1 <0>         0.0680
     44 H24         4.4363    1.7520    8.9789 H         1 <0>         0.3744
@<TRIPOS>BOND
     1    1    2 1
     2    1   24 1
     3    1   25 1
     4    1   26 1
     5    2    3 1
     6    2    8 1
     7    2    4 1
     8    4    5 1
     9    4   27 1
    10    4   28 1
    11    5    6 1
    12    5   29 1
    13    5   30 1
    14    6    7 1
    15    6   31 1
    16    6   32 1
    17    7    8 1
    18    7   33 1
    19    7   34 1
    20    8    9 1
    21    8   10 1
    22   10   11 am
    23   10   35 1
    24   11   12 2
    25   11   13 am
    26   13   14 1
    27   13   36 1
    28   14   19 ar
    29   14   15 ar
    30   15   16 ar
    31   15   37 1
    32   16   17 ar
    33   16   38 1
    34   17   18 ar
    35   17   20 1
    36   18   19 ar
    37   18   39 1
    38   19   40 1
    39   20   21 1
    40   20   22 1
    41   20   23 1
    42   22   41 1
    43   22   42 1
    44   22   43 1
    45   23   44 1
@<TRIPOS>MOLECULE
ZINC51580609
   44    45     0     0     0
SMALL
USER_CHARGES

@<TRIPOS>ATOM
      1 C1          0.1408    1.6173    0.4592 C.3       1 <0>        -0.1514
      2 C2          0.1826    0.0927    0.3373 C.3       1 <0>        -0.1202
      3 C3         -1.2277   -0.4362    0.0684 C.3       1 <0>        -0.0752
      4 H1         -1.9035   -0.0807    0.8462 H         1 <0>         0.0818
      5 C4         -1.7095    0.0658   -1.2943 C.3       1 <0>        -0.1144
      6 C5         -3.1197   -0.4631   -1.5632 C.3       1 <0>        -0.1240
      7 C6         -3.0996   -1.9930   -1.5612 C.3       1 <0>        -0.1165
      8 C7         -2.6179   -2.4950   -0.1985 C.3       1 <0>        -0.1453
      9 C8         -1.2076   -1.9660    0.0704 C.3       1 <0>         0.0854
     10 H2         -0.5318   -2.3215   -0.7075 H         1 <0>         0.0712
     11 O1         -0.7577   -2.4349    1.3431 O.3       1 <0>        -0.2649
     12 C9         -0.1896   -3.6674    1.3803 C.ar      1 <0>         0.1840
     13 C10        -0.1692   -4.4589    0.2424 C.ar      1 <0>        -0.2193
     14 C11         0.4086   -5.7130    0.2817 C.ar      1 <0>        -0.0245
     15 C12         0.9704   -6.1879    1.4546 C.ar      1 <0>        -0.1628
     16 C13         0.9580   -5.4124    2.5950 C.ar      1 <0>        -0.0508
     17 C14         0.3829   -4.1417    2.5661 C.ar      1 <0>        -0.0980
     18 C15         0.3720   -3.3030    3.7841 C.2       1 <0>         0.4069
     19 N1         -0.1709   -2.1206    3.7551 N.2       1 <0>        -0.3820
     20 O2         -0.1814   -1.3175    4.9213 O.3       1 <0>        -0.4319
     21 N2          0.9394   -3.7758    4.9555 N.pl3     1 <0>        -0.8748
     22 C16         0.4272   -6.5689   -0.9585 C.3       1 <0>        -0.1215
     23 H3          1.1455    1.9941    0.6507 H         1 <0>         0.0524
     24 H4         -0.2371    2.0458   -0.4691 H         1 <0>         0.0542
     25 H5         -0.5157    1.8981    1.2827 H         1 <0>         0.0541
     26 H6          0.8391   -0.1881   -0.4863 H         1 <0>         0.0561
     27 H7          0.5605   -0.3358    1.2655 H         1 <0>         0.0747
     28 H8         -1.7238    1.1557   -1.2957 H         1 <0>         0.0738
     29 H9         -1.0337   -0.2897   -2.0721 H         1 <0>         0.0635
     30 H10        -3.7955   -0.1076   -0.7853 H         1 <0>         0.0648
     31 H11        -3.4629   -0.1055   -2.5339 H         1 <0>         0.0655
     32 H12        -4.1043   -2.3698   -1.7528 H         1 <0>         0.0679
     33 H13        -2.4238   -2.3485   -2.3390 H         1 <0>         0.0627
     34 H14        -3.2937   -2.1395    0.5793 H         1 <0>         0.0751
     35 H15        -2.6036   -3.5849   -0.1971 H         1 <0>         0.0682
     36 H16        -0.6060   -4.0948   -0.6758 H         1 <0>         0.1358
     37 H17         1.4198   -7.1697    1.4767 H         1 <0>         0.1306
     38 H18         1.3967   -5.7868    3.5081 H         1 <0>         0.1309
     39 H19        -0.6060   -0.4569    4.8024 H         1 <0>         0.3986
     40 H20         1.3441   -4.6571    4.9771 H         1 <0>         0.3932
     41 H21         0.9323   -3.2257    5.7543 H         1 <0>         0.4080
     42 H22         1.3359   -6.3671   -1.5257 H         1 <0>         0.0768
     43 H23         0.4025   -7.6209   -0.6744 H         1 <0>         0.0721
     44 H24        -0.4433   -6.3379   -1.5726 H         1 <0>         0.0692
@<TRIPOS>BOND
     1    1    2 1
     2    1   23 1
     3    1   24 1
     4    1   25 1
     5    2    3 1
     6    2   26 1
     7    2   27 1
     8    3    4 1
     9    3    9 1
    10    3    5 1
    11    5    6 1
    12    5   28 1
    13    5   29 1
    14    6    7 1
    15    6   30 1
    16    6   31 1
    17    7    8 1
    18    7   32 1
    19    7   33 1
    20    8    9 1
    21    8   34 1
    22    8   35 1
    23    9   10 1
    24    9   11 1
    25   11   12 1
    26   12   17 ar
    27   12   13 ar
    28   13   14 ar
    29   13   36 1
    30   14   15 ar
    31   14   22 1
    32   15   16 ar
    33   15   37 1
    34   16   17 ar
    35   16   38 1
    36   17   18 1
    37   18   19 2
    38   18   21 1
    39   19   20 1
    40   20   39 1
    41   21   40 1
    42   21   41 1
    43   22   42 1
    44   22   43 1
    45   22   44 1
@<TRIPOS>MOLECULE
ZINC41213734
   35    36     0     0     0
SMALL
USER_CHARGES

@<TRIPOS>ATOM
      1 C1         -0.0290    1.8159   -0.1553 C.3       1 <0>        -0.1464
      2 S1         -0.0028    0.0023   -0.1265 S.3       1 <0>        -0.1111
      3 C2         -1.7060   -0.4483   -0.1002 C.ar      1 <0>        -0.0674
      4 C3         -2.6858    0.5399   -0.1108 C.ar      1 <0>        -0.1398
      5 C4         -4.0178    0.1913   -0.0908 C.ar      1 <0>        -0.0675
      6 C5         -4.3854   -1.1571   -0.0597 C.ar      1 <0>        -0.0631
      7 C6         -3.3985   -2.1473   -0.0491 C.ar      1 <0>        -0.0574
      8 C7         -2.0684   -1.7917   -0.0746 C.ar      1 <0>        -0.1049
      9 C8         -5.8098   -1.5340   -0.0377 C.2       1 <0>         0.1110
     10 N1         -6.1496   -2.7868   -0.0088 N.2       1 <0>        -0.2262
     11 N2         -7.5038   -3.1450    0.0121 N.am      1 <0>        -0.5791
     12 C9         -7.8565   -4.4455    0.0421 C.2       1 <0>         0.5941
     13 O1         -6.9989   -5.3082    0.0510 O.2       1 <0>        -0.5170
     14 C10        -9.2812   -4.8224    0.0641 C.ar      1 <0>        -0.2350
     15 C11       -10.2671   -3.8386    0.1789 C.ar      1 <0>        -0.0349
     16 C12       -11.5969   -4.1974    0.1984 C.ar      1 <0>        -0.1911
     17 C13       -11.9641   -5.5307    0.1052 C.ar      1 <0>        -0.0351
     18 C14       -11.0028   -6.5139   -0.0081 C.ar      1 <0>        -0.2109
     19 C15        -9.6566   -6.1712   -0.0359 C.ar      1 <0>         0.2874
     20 N3         -8.6871   -7.1586   -0.1562 N.pl3     1 <0>        -0.8539
     21 H1          0.9932    2.1938   -0.1728 H         1 <0>         0.1112
     22 H2         -0.5580    2.1575   -1.0450 H         1 <0>         0.0856
     23 H3         -0.5381    2.1860    0.7346 H         1 <0>         0.0857
     24 H4         -2.4011    1.5815   -0.1345 H         1 <0>         0.1287
     25 H5         -4.7777    0.9588   -0.0987 H         1 <0>         0.1327
     26 H6         -3.6790   -3.1900   -0.0250 H         1 <0>         0.1413
     27 H7         -1.3055   -2.5562   -0.0709 H         1 <0>         0.1332
     28 H8         -6.5712   -0.7681   -0.0456 H         1 <0>         0.1220
     29 H9         -8.1877   -2.4571    0.0050 H         1 <0>         0.3873
     30 H10        -9.9867   -2.7982    0.2525 H         1 <0>         0.1209
     31 H11       -12.3575   -3.4358    0.2871 H         1 <0>         0.1269
     32 H12       -13.0094   -5.8018    0.1218 H         1 <0>         0.1286
     33 H13       -11.2972   -7.5505   -0.0799 H         1 <0>         0.1300
     34 H14        -7.7476   -6.9263   -0.0917 H         1 <0>         0.4178
     35 H15        -8.9497   -8.0805   -0.3047 H         1 <0>         0.3963
@<TRIPOS>BOND
     1    1    2 1
     2    1   21 1
     3    1   22 1
     4    1   23 1
     5    2    3 1
     6    3    8 ar
     7    3    4 ar
     8    4    5 ar
     9    4   24 1
    10    5    6 ar
    11    5   25 1
    12    6    7 ar
    13    6    9 1
    14    7    8 ar
    15    7   26 1
    16    8   27 1
    17    9   10 2
    18    9   28 1
    19   10   11 1
    20   11   12 am
    21   11   29 1
    22   12   13 2
    23   12   14 1
    24   14   19 ar
    25   14   15 ar
    26   15   16 ar
    27   15   30 1
    28   16   17 ar
    29   16   31 1
    30   17   18 ar
    31   17   32 1
    32   18   19 ar
    33   18   33 1
    34   19   20 1
    35   20   34 1
    36   20   35 1
@<TRIPOS>MOLECULE
ZINC05094393
   43    46     0     0     0
SMALL
USER_CHARGES
6-[(8-methoxycarbonyl-6-thiabicyclo[3.3.0]octa-7,9-dien-7-yl)carbamoyl]bicyclo[2.2.1]hept-2-ene-5-carboxylic acid
@<TRIPOS>ATOM
      1 C1         -1.2039    5.6989   -0.0693 C.3       1 <0>         0.0369
      2 O1         -0.1393    4.7803   -0.4312 O.3       1 <0>        -0.3375
      3 C2          0.5014    4.1570    0.5789 C.2       1 <0>         0.5405
      4 O2          0.1784    4.3758    1.7310 O.2       1 <0>        -0.5128
      5 C3          1.5859    3.2168    0.2885 C.2       1 <0>        -0.2309
      6 C4          2.9745    3.6671    0.1920 C.2       1 <0>        -0.0824
      7 C5          3.8706    2.7013   -0.0780 C.2       1 <0>        -0.2617
      8 S1          2.9090    1.2130   -0.2007 S.3       1 <0>         0.2751
      9 C6          1.3347    1.8683    0.0946 C.2       1 <0>         0.1297
     10 N1          0.1186    1.2043    0.1336 N.am      1 <0>        -0.6111
     11 C7          0.0696   -0.1252   -0.0821 C.2       1 <0>         0.5422
     12 O3          1.0895   -0.7406   -0.3102 O.2       1 <0>        -0.4866
     13 C8         -1.2525   -0.8472   -0.0397 C.3       1 <0>        -0.0948
     14 H1         -1.7670   -0.6474    0.9003 H         1 <0>         0.0938
     15 C9         -1.0462   -2.3828   -0.2371 C.3       1 <0>        -0.0497
     16 H2         -0.6970   -2.9388    0.6329 H         1 <0>         0.0980
     17 C10        -2.4524   -2.7863   -0.8140 C.3       1 <0>        -0.1206
     18 C11        -2.3497   -1.7787   -2.0170 C.3       1 <0>        -0.0636
     19 H3         -3.1663   -1.7944   -2.7389 H         1 <0>         0.0948
     20 C12        -2.1349   -0.4383   -1.2445 C.3       1 <0>        -0.1314
     21 H4         -3.0885   -0.0362   -0.9022 H         1 <0>         0.0799
     22 C13        -1.4166    0.5636   -2.1114 C.2       1 <0>         0.4573
     23 O4         -0.3736    0.2645   -2.6430 O.co2     1 <0>        -0.6045
     24 C14        -0.9527   -2.1366   -2.5387 C.2       1 <0>        -0.1168
     25 C15        -0.2016   -2.4847   -1.5131 C.2       1 <0>        -0.1644
     26 C16         5.2736    3.2396   -0.1570 C.3       1 <0>        -0.0238
     27 C17         5.1991    4.6227    0.5267 C.3       1 <0>        -0.1143
     28 C18         3.7185    4.9974    0.3167 C.3       1 <0>        -0.0605
     29 H5         -1.9766    5.1612    0.4801 H         1 <0>         0.0616
     30 H6         -0.8001    6.4946    0.5567 H         1 <0>         0.0570
     31 H7         -1.6343    6.1305   -0.9729 H         1 <0>         0.1004
     32 H8         -0.6976    1.6971    0.3121 H         1 <0>         0.4192
     33 H9         -2.4869   -3.8254   -1.1414 H         1 <0>         0.0756
     34 H10        -3.2683   -2.5440   -0.1330 H         1 <0>         0.0701
     35 H11        -0.6378   -2.1085   -3.5714 H         1 <0>         0.1169
     36 H12         0.8331   -2.7899   -1.5629 H         1 <0>         0.1211
     37 H13         5.9620    2.5868    0.3797 H         1 <0>         0.0742
     38 H14         5.5820    3.3458   -1.1971 H         1 <0>         0.0804
     39 H15         5.4356    4.5465    1.5880 H         1 <0>         0.0741
     40 H16         5.8569    5.3379    0.0329 H         1 <0>         0.0799
     41 H17         3.6030    5.5812   -0.5964 H         1 <0>         0.0797
     42 H18         3.3463    5.5587    1.1738 H         1 <0>         0.0690
     43 O5         -1.9354    1.7881   -2.2929 O.co2     1 <0>        -0.7601
@<TRIPOS>BOND
     1    1    2 1
     2    1   29 1
     3    1   30 1
     4    1   31 1
     5    2    3 1
     6    3    4 2
     7    3    5 1
     8    5    9 2
     9    5    6 1
    10    6   28 1
    11    6    7 2
    12    7    8 1
    13    7   26 1
    14    8    9 1
    15    9   10 1
    16   10   11 am
    17   10   32 1
    18   11   12 2
    19   11   13 1
    20   13   14 1
    21   13   20 1
    22   13   15 1
    23   15   16 1
    24   15   25 1
    25   15   17 1
    26   17   18 1
    27   17   33 1
    28   17   34 1
    29   18   19 1
    30   18   20 1
    31   18   24 1
    32   20   21 1
    33   20   22 1
    34   22   23 2
    35   22   43 1
    36   24   25 2
    37   24   35 1
    38   25   36 1
    39   26   27 1
    40   26   37 1
    41   26   38 1
    42   27   28 1
    43   27   39 1
    44   27   40 1
    45   28   41 1
    46   28   42 1
@<TRIPOS>MOLECULE
ZINC10916297
   43    45     0     0     0
SMALL
USER_CHARGES

@<TRIPOS>ATOM
      1 C1          0.4268    1.4731   -0.0497 C.3       1 <0>        -0.1044
      2 C2          0.2139   -0.0187   -0.0268 C.ar      1 <0>         0.2491
      3 C3         -0.0994   -0.7108   -1.2055 C.ar      1 <0>        -0.3832
      4 C4         -0.2886   -2.1111   -1.1247 C.ar      1 <0>         0.2257
      5 N1         -0.1620   -2.7058    0.0572 N.ar      1 <0>        -0.5838
      6 C5          0.1349   -2.0060    1.1393 C.ar      1 <0>         0.5689
      7 O1          0.2548   -2.6506    2.3223 O.3       1 <0>        -0.6715
      8 N2          0.3248   -0.6936    1.1019 N.ar      1 <0>        -0.5903
      9 S1         -0.6849   -3.0481   -2.5634 S.3       1 <0>        -0.0201
     10 C6         -0.8226   -4.7511   -1.9538 C.3       1 <0>        -0.0540
     11 C7         -1.9873   -4.8515   -1.0028 C.ar      1 <0>        -0.0765
     12 C8         -3.2644   -4.5541   -1.4402 C.ar      1 <0>        -0.0974
     13 C9         -4.3328   -4.6462   -0.5679 C.ar      1 <0>        -0.1297
     14 C10        -4.1241   -5.0363    0.7418 C.ar      1 <0>        -0.1155
     15 C11        -2.8471   -5.3347    1.1789 C.ar      1 <0>        -0.1199
     16 C12        -1.7793   -5.2467    0.3054 C.ar      1 <0>        -0.0563
     17 C13        -1.0414   -5.6846   -3.1165 C.2       1 <0>         0.5497
     18 O2         -1.4559   -5.2527   -4.1712 O.2       1 <0>        -0.5180
     19 N3         -0.7765   -6.9994   -2.9841 N.am      1 <0>        -0.6960
     20 C14        -0.9892   -7.9069   -4.1143 C.3       1 <0>         0.0829
     21 C15        -1.6659   -9.2484   -3.8255 C.3       1 <0>        -0.1933
     22 C16        -0.1707   -9.1992   -4.1464 C.3       1 <0>        -0.1893
     23 C17        -0.2273   -0.0056   -2.4818 C.2       1 <0>         0.4339
     24 O3         -1.3198    0.3522   -2.8704 O.2       1 <0>        -0.4630
     25 C18         0.9976    0.2760   -3.3131 C.3       1 <0>        -0.1963
     26 H1          1.4568    1.6887   -0.3336 H         1 <0>         0.0773
     27 H2         -0.2518    1.9259   -0.7726 H         1 <0>         0.0672
     28 H3          0.2293    1.8835    0.9406 H         1 <0>         0.0781
     29 H4          0.0953   -5.0264   -1.4345 H         1 <0>         0.1232
     30 H5         -3.4275   -4.2493   -2.4634 H         1 <0>         0.1236
     31 H6         -5.3305   -4.4131   -0.9094 H         1 <0>         0.1182
     32 H7         -4.9587   -5.1077    1.4235 H         1 <0>         0.1165
     33 H8         -2.6840   -5.6391    2.2022 H         1 <0>         0.1202
     34 H9         -0.7821   -5.4833    0.6460 H         1 <0>         0.1249
     35 H10        -0.4450   -7.3448   -2.1404 H         1 <0>         0.4048
     36 H11        -1.2093   -7.4268   -5.0678 H         1 <0>         0.1391
     37 H12        -1.9528   -9.4557   -2.7946 H         1 <0>         0.0978
     38 H13        -2.3315   -9.6510   -4.5890 H         1 <0>         0.1017
     39 H14         0.1473   -9.5694   -5.1210 H         1 <0>         0.1032
     40 H15         0.5260   -9.3742   -3.3266 H         1 <0>         0.0979
     41 H16         1.8662   -0.1930   -2.8509 H         1 <0>         0.0789
     42 H17         0.8571   -0.1280   -4.3157 H         1 <0>         0.0874
     43 H18         1.1556    1.3528   -3.3742 H         1 <0>         0.0876
@<TRIPOS>BOND
     1    1    2 1
     2    1   26 1
     3    1   27 1
     4    1   28 1
     5    2    8 ar
     6    2    3 ar
     7    3    4 ar
     8    3   23 1
     9    4    5 ar
    10    4    9 1
    11    5    6 ar
    12    6    7 1
    13    6    8 ar
    14    9   10 1
    15   10   11 1
    16   10   17 1
    17   10   29 1
    18   11   16 ar
    19   11   12 ar
    20   12   13 ar
    21   12   30 1
    22   13   14 ar
    23   13   31 1
    24   14   15 ar
    25   14   32 1
    26   15   16 ar
    27   15   33 1
    28   16   34 1
    29   17   18 2
    30   17   19 am
    31   19   20 1
    32   19   35 1
    33   20   22 1
    34   20   21 1
    35   20   36 1
    36   21   22 1
    37   21   37 1
    38   21   38 1
    39   22   39 1
    40   22   40 1
    41   23   24 2
    42   23   25 1
    43   25   41 1
    44   25   42 1
    45   25   43 1
@<TRIPOS>MOLECULE
ZINC50371445
   33    34     0     0     0
SMALL
USER_CHARGES

@<TRIPOS>ATOM
      1 C1         -0.0046    1.3854   -0.6399 C.3       1 <0>         0.0306
      2 O1         -0.0029   -0.0408   -0.5495 O.3       1 <0>        -0.3746
      3 C2          0.5021   -0.5441    0.6889 C.3       1 <0>         0.0830
      4 H1          1.2367    0.1436    1.1080 H         1 <0>         0.0746
      5 C3         -0.6553   -0.7780    1.6913 C.3       1 <0>        -0.1443
      6 C4         -0.0625   -1.8335    2.6575 C.3       1 <0>        -0.1183
      7 C5          0.7609   -2.7636    1.7428 C.3       1 <0>        -0.1462
      8 C6          1.1231   -1.9422    0.4904 C.3       1 <0>         0.1480
      9 H2          0.7047   -2.4138   -0.3987 H         1 <0>         0.1110
     10 N1          2.5783   -1.8314    0.3627 N.pl3     1 <0>        -1.1070
     11 S1          3.3991   -2.8425   -0.6603 S.o2      1 <0>         2.6996
     12 O2          2.7142   -2.8046   -1.9047 O.2       1 <0>        -0.9507
     13 O3          4.7761   -2.5133   -0.5382 O.2       1 <0>        -0.9517
     14 C7          3.2151   -4.4790   -0.0338 C.2       1 <0>        -0.6762
     15 C8          2.5392   -5.4284   -0.7570 C.2       1 <0>        -0.0766
     16 C9          2.4535   -6.6859   -0.1705 C.2       1 <0>        -0.1693
     17 S2          3.3334   -6.4370    1.3598 S.3       1 <0>         0.3124
     18 C10         3.7458   -4.8195    1.1702 C.2       1 <0>        -0.1962
     19 Br1         4.7228   -3.7226    2.3610 Br        1 <0>         0.0387
     20 C11         1.8295   -7.8591   -0.6610 C.2       1 <0>         0.5477
     21 O4          1.2646   -7.8438   -1.7480 O.co2     1 <0>        -0.6585
     22 O5          1.8548   -8.8892    0.0017 O.co2     1 <0>        -0.6752
     23 H3          1.0144    1.7574   -0.5331 H         1 <0>         0.0408
     24 H4         -0.4020    1.6876   -1.6088 H         1 <0>         0.0863
     25 H5         -0.6274    1.7990    0.1533 H         1 <0>         0.0399
     26 H6         -0.8962    0.1416    2.2246 H         1 <0>         0.0697
     27 H7         -1.5344   -1.1717    1.1813 H         1 <0>         0.0826
     28 H8          0.5820   -1.3559    3.3955 H         1 <0>         0.0679
     29 H9         -0.8598   -2.3906    3.1496 H         1 <0>         0.0727
     30 H10         1.6695   -3.0814    2.2542 H         1 <0>         0.0797
     31 H11         0.1665   -3.6329    1.4619 H         1 <0>         0.0809
     32 H12         3.0611   -1.1659    0.8774 H         1 <0>         0.4147
     33 H13         2.1013   -5.2128   -1.7203 H         1 <0>         0.1641
@<TRIPOS>BOND
     1    1    2 1
     2    1   23 1
     3    1   24 1
     4    1   25 1
     5    2    3 1
     6    3    4 1
     7    3    8 1
     8    3    5 1
     9    5    6 1
    10    5   26 1
    11    5   27 1
    12    6    7 1
    13    6   28 1
    14    6   29 1
    15    7    8 1
    16    7   30 1
    17    7   31 1
    18    8    9 1
    19    8   10 1
    20   10   11 1
    21   10   32 1
    22   11   12 2
    23   11   13 2
    24   11   14 1
    25   14   18 2
    26   14   15 1
    27   15   16 2
    28   15   33 1
    29   16   17 1
    30   16   20 1
    31   17   18 1
    32   18   19 1
    33   20   21 2
    34   20   22 1
@<TRIPOS>MOLECULE
ZINC24889504
   43    45     0     0     0
SMALL
USER_CHARGES

@<TRIPOS>ATOM
      1 C1         -2.0039    1.2982   -1.6511 C.3       1 <0>        -0.6384
      2 S1         -1.4735   -0.3867   -1.2385 S.o2      1 <0>         2.5322
      3 O1         -0.9982   -0.4363    0.0997 O.2       1 <0>        -1.0299
      4 O2         -2.4310   -1.3286   -1.7025 O.2       1 <0>        -1.0288
      5 N1         -0.1326   -0.6517   -2.1733 N.2       1 <0>        -1.1098
      6 C2          0.5395   -1.8766   -2.1012 C.ar      1 <0>         0.2694
      7 C3          0.0810   -2.8726   -1.2515 C.ar      1 <0>        -0.2465
      8 C4          0.7464   -4.0821   -1.1823 C.ar      1 <0>        -0.0791
      9 C5          1.8694   -4.3035   -1.9582 C.ar      1 <0>        -0.2103
     10 C6          2.3333   -3.3165   -2.8077 C.ar      1 <0>        -0.0862
     11 C7          1.6690   -2.1020   -2.8876 C.ar      1 <0>         0.0617
     12 N2          2.1342   -1.1020   -3.7524 N.am      1 <0>        -0.6278
     13 C8          2.8657   -1.4338   -4.8346 C.2       1 <0>         0.5035
     14 O3          3.0371   -2.6011   -5.1162 O.2       1 <0>        -0.5448
     15 C9          3.4708   -0.3545   -5.6949 C.3       1 <0>        -0.1568
     16 C10         4.2453   -0.9958   -6.8481 C.3       1 <0>         0.1274
     17 N3          4.8335    0.0534   -7.6844 N.pl3     1 <0>        -0.4814
     18 C11         4.2630    0.5685   -8.8164 C.2       1 <0>         0.0567
     19 C12         5.0604    1.5115   -9.3425 C.2       1 <0>        -0.2109
     20 C13         6.2381    1.6083   -8.4767 C.ar      1 <0>        -0.1107
     21 C14         6.0401    0.6721   -7.4451 C.ar      1 <0>         0.0978
     22 C15         7.0050    0.5378   -6.4525 C.ar      1 <0>        -0.1258
     23 C16         8.1374    1.3220   -6.4882 C.ar      1 <0>        -0.1028
     24 C17         8.3263    2.2466   -7.5059 C.ar      1 <0>        -0.1496
     25 C18         7.3950    2.3891   -8.4960 C.ar      1 <0>        -0.0744
     26 H1         -1.2031    1.9992   -1.4154 H         1 <0>         0.1145
     27 H2         -2.2360    1.3559   -2.7145 H         1 <0>         0.1142
     28 H3         -2.8913    1.5521   -1.0713 H         1 <0>         0.1010
     29 H4         -0.7955   -2.7029   -0.6438 H         1 <0>         0.1045
     30 H5          0.3884   -4.8564   -0.5199 H         1 <0>         0.1014
     31 H6          2.3859   -5.2502   -1.9001 H         1 <0>         0.1038
     32 H7          3.2106   -3.4929   -3.4122 H         1 <0>         0.1293
     33 H8          1.9296   -0.1711   -3.5721 H         1 <0>         0.4141
     34 H9          2.6784    0.2771   -6.0963 H         1 <0>         0.0983
     35 H10         4.1492    0.2513   -5.0942 H         1 <0>         0.0970
     36 H11         5.0377   -1.6275   -6.4467 H         1 <0>         0.0948
     37 H12         3.5669   -1.6017   -7.4488 H         1 <0>         0.1002
     38 H13         3.3120    0.2616   -9.2262 H         1 <0>         0.1678
     39 H14         4.8700    2.0890  -10.2351 H         1 <0>         0.1447
     40 H15         6.8670   -0.1786   -5.6562 H         1 <0>         0.1194
     41 H16         8.8853    1.2164   -5.7163 H         1 <0>         0.1228
     42 H17         9.2193    2.8538   -7.5190 H         1 <0>         0.1189
     43 H18         7.5482    3.1116   -9.2841 H         1 <0>         0.1186
@<TRIPOS>BOND
     1    1    2 1
     2    1   26 1
     3    1   27 1
     4    1   28 1
     5    2    3 2
     6    2    4 2
     7    2    5 1
     8    5    6 1
     9    6   11 ar
    10    6    7 ar
    11    7    8 ar
    12    7   29 1
    13    8    9 ar
    14    8   30 1
    15    9   10 ar
    16    9   31 1
    17   10   11 ar
    18   10   32 1
    19   11   12 1
    20   12   13 am
    21   12   33 1
    22   13   14 2
    23   13   15 1
    24   15   16 1
    25   15   34 1
    26   15   35 1
    27   16   17 1
    28   16   36 1
    29   16   37 1
    30   17   21 1
    31   17   18 1
    32   18   19 2
    33   18   38 1
    34   19   20 1
    35   19   39 1
    36   20   25 ar
    37   20   21 ar
    38   21   22 ar
    39   22   23 ar
    40   22   40 1
    41   23   24 ar
    42   23   41 1
    43   24   25 ar
    44   24   42 1
    45   25   43 1
@<TRIPOS>MOLECULE
ZINC65029663
   46    48     0     0     0
SMALL
USER_CHARGES

@<TRIPOS>ATOM
      1 C1          2.2729   -3.8120   -3.6821 C.3       1 <0>        -0.1426
      2 C2          1.3936   -3.2853   -2.5462 C.3       1 <0>        -0.6036
      3 S1         -0.1628   -4.2163   -2.5048 S.o2      1 <0>         2.5270
      4 O1         -0.9371   -3.9268   -3.6606 O.2       1 <0>        -1.0286
      5 O2          0.0813   -5.5606   -2.1145 O.2       1 <0>        -1.0285
      6 N1         -1.0180   -3.5599   -1.2478 N.2       1 <0>        -1.1009
      7 C3         -2.2864   -4.0530   -0.9333 C.ar      1 <0>         0.2876
      8 C4         -2.8296   -5.0978   -1.6703 C.ar      1 <0>        -0.2558
      9 C5         -4.0838   -5.5832   -1.3564 C.ar      1 <0>        -0.0499
     10 C6         -4.7990   -5.0302   -0.3100 C.ar      1 <0>        -0.1889
     11 C7         -4.2613   -3.9901    0.4257 C.ar      1 <0>        -0.0696
     12 C8         -3.0052   -3.5036    0.1208 C.ar      1 <0>        -0.1863
     13 C9         -6.1677   -5.5619    0.0290 C.3       1 <0>        -0.0439
     14 C10        -6.5426   -5.3977    1.5113 C.3       1 <0>        -0.1203
     15 C11        -7.1716   -6.7984    1.4262 C.3       1 <0>        -0.1440
     16 C12        -6.1962   -7.0803    0.2712 C.3       1 <0>        -0.1124
     17 C13        -7.2339   -5.0822   -0.9220 C.2       1 <0>         0.5525
     18 O3         -7.8021   -5.8731   -1.6448 O.2       1 <0>        -0.5436
     19 N2         -7.5559   -3.7744   -0.9691 N.am      1 <0>        -0.7253
     20 C14        -8.6640   -3.3229   -1.8144 C.3       1 <0>         0.2040
     21 C15        -8.8156   -1.8288   -1.6883 C.2       1 <0>        -0.0359
     22 C16        -8.2069   -0.9087   -2.4580 C.2       1 <0>        -0.1810
     23 C17        -8.6307    0.3580   -1.9946 C.2       1 <0>        -0.2148
     24 C18        -9.4730    0.1362   -0.9695 C.2       1 <0>        -0.0351
     25 O4         -9.5857   -1.1903   -0.7922 O.3       1 <0>        -0.1729
     26 H1          3.2081   -3.2526   -3.7069 H         1 <0>         0.0677
     27 H2          2.4856   -4.8682   -3.5170 H         1 <0>         0.0643
     28 H3          1.7515   -3.6904   -4.6315 H         1 <0>         0.0642
     29 H4          1.9150   -3.4068   -1.5968 H         1 <0>         0.1186
     30 H5          1.1808   -2.2291   -2.7112 H         1 <0>         0.1184
     31 H6         -2.2718   -5.5297   -2.4881 H         1 <0>         0.1002
     32 H7         -4.5066   -6.3955   -1.9290 H         1 <0>         0.1001
     33 H8         -4.8225   -3.5604    1.2423 H         1 <0>         0.1039
     34 H9         -2.5840   -2.6943    0.6986 H         1 <0>         0.1102
     35 H10        -5.6807   -5.3458    2.1765 H         1 <0>         0.0956
     36 H11        -7.2672   -4.6040    1.6931 H         1 <0>         0.0646
     37 H12        -6.9920   -7.4121    2.3089 H         1 <0>         0.0683
     38 H13        -8.2181   -6.7893    1.1215 H         1 <0>         0.0757
     39 H14        -6.6411   -7.6449   -0.5482 H         1 <0>         0.0776
     40 H15        -5.2395   -7.4884    0.5974 H         1 <0>         0.0906
     41 H16        -7.0540   -3.1320   -0.4434 H         1 <0>         0.4070
     42 H17        -8.4571   -3.5807   -2.8531 H         1 <0>         0.0982
     43 H18        -9.5858   -3.8097   -1.4958 H         1 <0>         0.0817
     44 H19        -7.5249   -1.1007   -3.2730 H         1 <0>         0.1524
     45 H20        -8.3347    1.3193   -2.3879 H         1 <0>         0.1498
     46 H21        -9.9764    0.8959   -0.3899 H         1 <0>         0.2033
@<TRIPOS>BOND
     1    1    2 1
     2    1   26 1
     3    1   27 1
     4    1   28 1
     5    2    3 1
     6    2   29 1
     7    2   30 1
     8    3    4 2
     9    3    5 2
    10    3    6 1
    11    6    7 1
    12    7   12 ar
    13    7    8 ar
    14    8    9 ar
    15    8   31 1
    16    9   10 ar
    17    9   32 1
    18   10   11 ar
    19   10   13 1
    20   11   12 ar
    21   11   33 1
    22   12   34 1
    23   13   16 1
    24   13   14 1
    25   13   17 1
    26   14   15 1
    27   14   35 1
    28   14   36 1
    29   15   16 1
    30   15   37 1
    31   15   38 1
    32   16   39 1
    33   16   40 1
    34   17   18 2
    35   17   19 am
    36   19   20 1
    37   19   41 1
    38   20   21 1
    39   20   42 1
    40   20   43 1
    41   21   25 1
    42   21   22 2
    43   22   23 1
    44   22   44 1
    45   23   24 2
    46   23   45 1
    47   24   25 1
    48   24   46 1
@<TRIPOS>MOLECULE
ZINC07881873
   43    45     0     0     0
SMALL
USER_CHARGES
4-[1-(5-chloro-2-methoxy-phenyl)-5-oxo-pyrrolidin-3-yl]carbonylaminobenzoic acid
@<TRIPOS>ATOM
      1 C1         -6.1892   -6.2636   -2.3428 C.3       1 <0>         0.0236
      2 O1         -5.2149   -5.7904   -1.4107 O.3       1 <0>        -0.3036
      3 C2         -4.6218   -6.7184   -0.6129 C.ar      1 <0>         0.1438
      4 C3         -4.9659   -8.0554   -0.7291 C.ar      1 <0>        -0.1928
      5 C4         -4.3668   -8.9972    0.0865 C.ar      1 <0>        -0.0612
      6 C5         -3.4185   -8.6093    1.0166 C.ar      1 <0>        -0.0657
      7 C6         -3.0654   -7.2774    1.1341 C.ar      1 <0>        -0.0595
      8 C7         -3.6629   -6.3275    0.3186 C.ar      1 <0>         0.1245
      9 N1         -3.3068   -4.9773    0.4357 N.am      1 <0>        -0.5695
     10 C8         -2.2231   -4.3382   -0.3200 C.3       1 <0>         0.1217
     11 C9         -2.4804   -2.8193   -0.2047 C.3       1 <0>        -0.1199
     12 H1         -3.0741   -2.4594   -1.0450 H         1 <0>         0.1237
     13 C10        -3.2804   -2.7344    1.1158 C.3       1 <0>        -0.1425
     14 C11        -3.9143   -4.1010    1.2541 C.2       1 <0>         0.5295
     15 O2         -4.8365   -4.3672    1.9957 O.2       1 <0>        -0.5159
     16 C12        -1.1834   -2.0591   -0.0995 C.2       1 <0>         0.5214
     17 O3         -0.1278   -2.6561   -0.1129 O.2       1 <0>        -0.5100
     18 N2         -1.1966   -0.7158    0.0096 N.am      1 <0>        -0.6612
     19 C13         0.0025   -0.0048    0.0108 C.ar      1 <0>         0.1222
     20 C14         0.0662    1.2496   -0.5882 C.ar      1 <0>        -0.1576
     21 C15         1.2485    1.9545   -0.5890 C.ar      1 <0>        -0.0622
     22 C16         2.3862    1.4087    0.0130 C.ar      1 <0>        -0.1204
     23 C17         2.3184    0.1483    0.6143 C.ar      1 <0>        -0.0714
     24 C18         1.1327   -0.5509    0.6113 C.ar      1 <0>        -0.1326
     25 C19         3.6545    2.1610    0.0147 C.2       1 <0>         0.4883
     26 O4          4.6421    1.6857    0.5390 O.co2     1 <0>        -0.6310
     27 Cl1        -2.6701   -9.7971    2.0377 Cl        1 <0>        -0.0618
     28 H2         -6.5830   -5.4235   -2.9148 H         1 <0>         0.1040
     29 H3         -5.7253   -6.9795   -3.0213 H         1 <0>         0.0590
     30 H4         -7.0026   -6.7489   -1.8033 H         1 <0>         0.0583
     31 H5         -5.7056   -8.3614   -1.4540 H         1 <0>         0.1439
     32 H6         -4.6393  -10.0385   -0.0027 H         1 <0>         0.1411
     33 H7         -2.3250   -6.9768    1.8607 H         1 <0>         0.1451
     34 H8         -2.2575   -4.6484   -1.3643 H         1 <0>         0.0889
     35 H9         -1.2569   -4.5913    0.1165 H         1 <0>         0.0988
     36 H10        -2.6126   -2.5370    1.9544 H         1 <0>         0.1148
     37 H11        -4.0475   -1.9630    1.0481 H         1 <0>         0.1164
     38 H12        -2.0405   -0.2438    0.0873 H         1 <0>         0.4085
     39 H13        -0.8119    1.6687   -1.0570 H         1 <0>         0.1194
     40 H14         1.2973    2.9278   -1.0544 H         1 <0>         0.1348
     41 H15         3.1953   -0.2763    1.0803 H         1 <0>         0.1301
     42 H16         1.0795   -1.5244    1.0759 H         1 <0>         0.1325
     43 O5          3.7180    3.3757   -0.5653 O.co2     1 <0>        -0.7559
@<TRIPOS>BOND
     1    1    2 1
     2    1   28 1
     3    1   29 1
     4    1   30 1
     5    2    3 1
     6    3    8 ar
     7    3    4 ar
     8    4    5 ar
     9    4   31 1
    10    5    6 ar
    11    5   32 1
    12    6    7 ar
    13    6   27 1
    14    7    8 ar
    15    7   33 1
    16    8    9 1
    17    9   14 am
    18    9   10 1
    19   10   11 1
    20   10   34 1
    21   10   35 1
    22   11   12 1
    23   11   13 1
    24   11   16 1
    25   13   14 1
    26   13   36 1
    27   13   37 1
    28   14   15 2
    29   16   17 2
    30   16   18 am
    31   18   19 1
    32   18   38 1
    33   19   24 ar
    34   19   20 ar
    35   20   21 ar
    36   20   39 1
    37   21   22 ar
    38   21   40 1
    39   22   23 ar
    40   22   25 1
    41   23   24 ar
    42   23   41 1
    43   24   42 1
    44   25   26 2
    45   25   43 1
@<TRIPOS>MOLECULE
ZINC40076339
   54    56     0     0     0
SMALL
USER_CHARGES

@<TRIPOS>ATOM
      1 C1         -3.4363   -2.9372   -2.8518 C.3       1 <0>        -0.1128
      2 C2         -2.2800   -3.3649   -1.9852 C.ar      1 <0>        -0.0771
      3 C3         -0.9819   -3.1334   -2.4053 C.ar      1 <0>        -0.1380
      4 C4          0.0811   -3.5222   -1.6172 C.ar      1 <0>        -0.0715
      5 C5         -0.1549   -4.1509   -0.3927 C.ar      1 <0>        -0.1411
      6 C6         -1.4674   -4.3814    0.0251 C.ar      1 <0>        -0.0600
      7 C7         -2.5211   -3.9823   -0.7703 C.ar      1 <0>        -0.1392
      8 C8          0.9796   -4.5709    0.4574 C.2       1 <0>         0.5040
      9 O1          2.1196   -4.4680    0.0449 O.2       1 <0>        -0.4752
     10 C9          0.7310   -5.1113    1.7971 C.2       1 <0>        -0.5059
     11 C10         0.9710   -6.3764    2.2147 C.2       1 <0>         0.2651
     12 C11         0.5780   -6.5017    3.6343 C.2       1 <0>         0.5153
     13 O2          0.6719   -7.5157    4.2969 O.2       1 <0>        -0.5186
     14 N1          0.1017   -5.3267    4.0843 N.am      1 <0>        -0.6116
     15 C12         0.1635   -4.3620    2.9800 C.3       1 <0>         0.2654
     16 H1         -0.8370   -3.9973    2.7476 H         1 <0>         0.0671
     17 C13         1.0641   -3.2098    3.3440 C.ar      1 <0>        -0.0697
     18 C14         0.7125   -1.9204    2.9885 C.ar      1 <0>        -0.0986
     19 C15         1.5355   -0.8623    3.3199 C.ar      1 <0>        -0.0983
     20 C16         2.7181   -1.0943    4.0120 C.ar      1 <0>        -0.0919
     21 C17         3.0680   -2.3913    4.3679 C.ar      1 <0>        -0.1301
     22 C18         2.2375   -3.4439    4.0376 C.ar      1 <0>        -0.0731
     23 S1          3.7717    0.2527    4.4365 S.3       1 <0>        -0.1378
     24 C19         5.1554   -0.5308    5.3095 C.3       1 <0>        -0.1399
     25 C20        -0.3863   -5.0562    5.4389 C.3       1 <0>         0.1395
     26 C21        -1.8801   -5.3778    5.5166 C.3       1 <0>         0.0443
     27 O3         -2.0758   -6.7806    5.3270 O.3       1 <0>        -0.3574
     28 C22        -3.4486   -7.1737    5.2726 C.3       1 <0>         0.0626
     29 C23        -3.5394   -8.6988    5.1892 C.3       1 <0>         0.0782
     30 O4         -3.0345   -9.2727    6.3966 O.3       1 <0>        -0.5649
     31 O5          1.4878   -7.3683    1.4539 O.3       1 <0>        -0.6561
     32 H2         -3.7239   -1.9173   -2.5966 H         1 <0>         0.0681
     33 H3         -3.1401   -2.9797   -3.8999 H         1 <0>         0.0638
     34 H4         -4.2814   -3.6054   -2.6858 H         1 <0>         0.0642
     35 H5         -0.8007   -2.6475   -3.3527 H         1 <0>         0.1196
     36 H6          1.0937   -3.3413   -1.9464 H         1 <0>         0.1277
     37 H7         -1.6569   -4.8674    0.9708 H         1 <0>         0.1328
     38 H8         -3.5367   -4.1560   -0.4465 H         1 <0>         0.1200
     39 H9         -0.2067   -1.7408    2.4507 H         1 <0>         0.1247
     40 H10         1.2606    0.1443    3.0414 H         1 <0>         0.1227
     41 H11         3.9863   -2.5753    4.9058 H         1 <0>         0.1180
     42 H12         2.5067   -4.4517    4.3175 H         1 <0>         0.1213
     43 H13         4.7808   -1.0525    6.1901 H         1 <0>         0.0820
     44 H14         5.6465   -1.2432    4.6467 H         1 <0>         0.0834
     45 H15         5.8704    0.2326    5.6163 H         1 <0>         0.1047
     46 H16         0.1566   -5.6772    6.1514 H         1 <0>         0.0851
     47 H17        -0.2280   -4.0048    5.6789 H         1 <0>         0.0889
     48 H18        -2.2642   -5.0861    6.4941 H         1 <0>         0.0530
     49 H19        -2.4109   -4.8285    4.7390 H         1 <0>         0.0493
     50 H20        -3.9615   -6.8277    6.1700 H         1 <0>         0.0496
     51 H21        -3.9181   -6.7332    4.3930 H         1 <0>         0.0587
     52 H22        -4.5799   -8.9939    5.0540 H         1 <0>         0.0552
     53 H23        -2.9486   -9.0523    4.3441 H         1 <0>         0.0580
     54 H24        -3.0615  -10.2392    6.4139 H         1 <0>         0.3762
@<TRIPOS>BOND
     1    1    2 1
     2    1   32 1
     3    1   33 1
     4    1   34 1
     5    2    7 ar
     6    2    3 ar
     7    3    4 ar
     8    3   35 1
     9    4    5 ar
    10    4   36 1
    11    5    6 ar
    12    5    8 1
    13    6    7 ar
    14    6   37 1
    15    7   38 1
    16    8    9 2
    17    8   10 1
    18   10   15 1
    19   10   11 2
    20   11   12 1
    21   11   31 1
    22   12   13 2
    23   12   14 am
    24   14   15 1
    25   14   25 1
    26   15   16 1
    27   15   17 1
    28   17   22 ar
    29   17   18 ar
    30   18   19 ar
    31   18   39 1
    32   19   20 ar
    33   19   40 1
    34   20   21 ar
    35   20   23 1
    36   21   22 ar
    37   21   41 1
    38   22   42 1
    39   23   24 1
    40   24   43 1
    41   24   44 1
    42   24   45 1
    43   25   26 1
    44   25   46 1
    45   25   47 1
    46   26   27 1
    47   26   48 1
    48   26   49 1
    49   27   28 1
    50   28   29 1
    51   28   50 1
    52   28   51 1
    53   29   30 1
    54   29   52 1
    55   29   53 1
    56   30   54 1
@<TRIPOS>MOLECULE
ZINC57121583
   46    48     0     0     0
SMALL
USER_CHARGES

@<TRIPOS>ATOM
      1 C1         -1.3428    0.0161    0.0193 C.3       1 <0>        -0.1492
      2 C2          0.1775    0.1857   -0.0097 C.3       1 <0>        -0.1068
      3 C3          0.7556   -0.5974   -1.1901 C.3       1 <0>        -0.0103
      4 C4          0.4515   -2.0889   -1.0132 C.3       1 <0>        -0.1205
      5 C5          1.1825   -2.5911    0.2365 C.3       1 <0>        -0.1450
      6 C6          2.6512   -2.2853    0.1064 C.2       1 <0>         0.5279
      7 O1          3.4589   -3.0053    0.6529 O.2       1 <0>        -0.5177
      8 N1          3.0831   -1.2319   -0.6029 N.am      1 <0>        -0.6771
      9 C7          2.2476   -0.4000   -1.2426 C.2       1 <0>         0.5243
     10 O2          2.7023    0.5287   -1.8753 O.2       1 <0>        -0.4779
     11 C8          0.1369   -0.1046   -2.4728 C.ar      1 <0>        -0.1899
     12 C9         -0.4869   -0.9971   -3.3252 C.ar      1 <0>        -0.0694
     13 C10        -1.0549   -0.5488   -4.5016 C.ar      1 <0>        -0.1832
     14 C11        -0.9991    0.8002   -4.8280 C.ar      1 <0>         0.2887
     15 C12        -0.3717    1.6940   -3.9695 C.ar      1 <0>        -0.2646
     16 C13         0.1894    1.2399   -2.7920 C.ar      1 <0>        -0.0246
     17 N2         -1.5721    1.2569   -6.0171 N.2       1 <0>        -1.0825
     18 S1         -1.5045    2.8655   -6.4045 S.o2      1 <0>         2.5884
     19 O3         -2.2932    3.5490   -5.4401 O.2       1 <0>        -1.0238
     20 O4         -0.1347    3.1730   -6.6247 O.2       1 <0>        -1.0168
     21 C14        -2.3203    3.0631   -7.9537 C.ar      1 <0>        -0.5792
     22 C15        -3.4812    3.8042   -8.0343 C.ar      1 <0>        -0.0332
     23 C16        -4.1230    3.9603   -9.2499 C.ar      1 <0>        -0.1196
     24 C17        -3.6066    3.3748  -10.3924 C.ar      1 <0>        -0.0849
     25 C18        -2.4470    2.6308  -10.3262 C.ar      1 <0>        -0.0996
     26 C19        -1.7903    2.4747   -9.1036 C.ar      1 <0>         0.0792
     27 C20        -0.5826    1.7091   -9.0285 C.1       1 <0>         0.2301
     28 N3          0.3756    1.1016   -8.9689 N.1       1 <0>        -0.3688
     29 H1         -1.7663    0.3745   -0.9189 H         1 <0>         0.0731
     30 H2         -1.5884   -1.0378    0.1498 H         1 <0>         0.0565
     31 H3         -1.7568    0.5909    0.8478 H         1 <0>         0.0530
     32 H4          0.4232    1.2420   -0.1192 H         1 <0>         0.0728
     33 H5          0.6030   -0.1918    0.9201 H         1 <0>         0.0601
     34 H6         -0.6222   -2.2316   -0.8913 H         1 <0>         0.1023
     35 H7          0.7997   -2.6396   -1.8870 H         1 <0>         0.0822
     36 H8          0.7828   -2.0902    1.1182 H         1 <0>         0.1119
     37 H9          1.0417   -3.6677    0.3329 H         1 <0>         0.1120
     38 H10         4.0372   -1.0651   -0.6554 H         1 <0>         0.4071
     39 H11        -0.5297   -2.0458   -3.0710 H         1 <0>         0.1093
     40 H12        -1.5417   -1.2464   -5.1670 H         1 <0>         0.1120
     41 H13        -0.3262    2.7434   -4.2205 H         1 <0>         0.0960
     42 H14         0.6735    1.9349   -2.1219 H         1 <0>         0.1033
     43 H15        -3.8900    4.2633   -7.1464 H         1 <0>         0.1480
     44 H16        -5.0314    4.5415   -9.3073 H         1 <0>         0.1345
     45 H17        -4.1128    3.5003  -11.3381 H         1 <0>         0.1354
     46 H18        -2.0452    2.1741  -11.2186 H         1 <0>         0.1368
@<TRIPOS>BOND
     1    1    2 1
     2    1   29 1
     3    1   30 1
     4    1   31 1
     5    2    3 1
     6    2   32 1
     7    2   33 1
     8    3    9 1
     9    3    4 1
    10    3   11 1
    11    4    5 1
    12    4   34 1
    13    4   35 1
    14    5    6 1
    15    5   36 1
    16    5   37 1
    17    6    7 2
    18    6    8 am
    19    8    9 am
    20    8   38 1
    21    9   10 2
    22   11   16 ar
    23   11   12 ar
    24   12   13 ar
    25   12   39 1
    26   13   14 ar
    27   13   40 1
    28   14   15 ar
    29   14   17 1
    30   15   16 ar
    31   15   41 1
    32   16   42 1
    33   17   18 1
    34   18   19 2
    35   18   20 2
    36   18   21 1
    37   21   26 ar
    38   21   22 ar
    39   22   23 ar
    40   22   43 1
    41   23   24 ar
    42   23   44 1
    43   24   25 ar
    44   24   45 1
    45   25   26 ar
    46   25   46 1
    47   26   27 1
    48   27   28 3
@<TRIPOS>MOLECULE
ZINC64103686
   50    52     0     0     0
SMALL
USER_CHARGES

@<TRIPOS>ATOM
      1 C1         -0.0187    1.5258    0.0104 C.3       1 <0>        -0.1488
      2 C2          0.0021   -0.0041    0.0020 C.3       1 <0>        -0.1275
      3 C3         -1.4333   -0.5336    0.0129 C.3       1 <0>         0.1855
      4 H1         -1.9862   -0.1019   -0.8214 H         1 <0>         0.1015
      5 C4         -1.4159   -2.0348   -0.1192 C.ar      1 <0>        -0.0981
      6 C5         -1.1591   -2.8230    0.9870 C.ar      1 <0>        -0.1070
      7 C6         -1.1431   -4.1999    0.8658 C.ar      1 <0>        -0.1158
      8 C7         -1.3845   -4.7886   -0.3614 C.ar      1 <0>        -0.0854
      9 C8         -1.6423   -4.0004   -1.4673 C.ar      1 <0>        -0.1179
     10 C9         -1.6624   -2.6236   -1.3453 C.ar      1 <0>        -0.1013
     11 C10        -1.3661   -6.2897   -0.4936 C.3       1 <0>        -0.1159
     12 N1         -2.0815   -0.1618    1.2729 N.am      1 <0>        -0.7054
     13 C11        -2.6637    1.0471    1.4001 C.2       1 <0>         0.5923
     14 O1         -2.6510    1.8290    0.4691 O.2       1 <0>        -0.5109
     15 C12        -3.3153    1.4209    2.6669 C.2       1 <0>         0.1086
     16 N2         -3.4033    0.6974    3.7440 N.2       1 <0>        -0.4479
     17 C13        -4.0553    1.3021    4.7429 C.2       1 <0>         0.1129
     18 C14        -4.4764    2.5260    4.4125 C.2       1 <0>        -0.6599
     19 C15        -4.0138    2.7302    2.9812 C.3       1 <0>        -0.0764
     20 S1         -5.3695    3.6608    5.4221 S.o2      1 <0>         2.6197
     21 O2         -5.3823    3.1143    6.7338 O.2       1 <0>        -1.0231
     22 O3         -4.8486    4.9524    5.1399 O.2       1 <0>        -1.0214
     23 N3         -6.9386    3.6572    4.8926 N.2       1 <0>        -1.0819
     24 C16        -7.8885    4.4729    5.5153 C.ar      1 <0>         0.2513
     25 C17        -7.5168    5.2907    6.5738 C.ar      1 <0>        -0.2455
     26 C18        -8.4573    6.0959    7.1867 C.ar      1 <0>        -0.0743
     27 C19        -9.7686    6.0883    6.7480 C.ar      1 <0>        -0.2005
     28 C20       -10.1441    5.2752    5.6943 C.ar      1 <0>        -0.1140
     29 C21        -9.2068    4.4712    5.0720 C.ar      1 <0>         0.0270
     30 F1         -9.5721    3.6813    4.0387 F         1 <0>        -0.1468
     31 H2          1.0039    1.9031    0.0027 H         1 <0>         0.0492
     32 H3         -0.5459    1.8868   -0.8726 H         1 <0>         0.0629
     33 H4         -0.5289    1.8773    0.9072 H         1 <0>         0.0566
     34 H5          0.5123   -0.3556   -0.8948 H         1 <0>         0.0742
     35 H6          0.5293   -0.3651    0.8851 H         1 <0>         0.0658
     36 H7         -0.9705   -2.3630    1.9458 H         1 <0>         0.1226
     37 H8         -0.9417   -4.8157    1.7299 H         1 <0>         0.1237
     38 H9         -1.8305   -4.4604   -2.4262 H         1 <0>         0.1234
     39 H10        -1.8675   -2.0079   -2.2086 H         1 <0>         0.1255
     40 H11        -2.3667   -6.6826   -0.3130 H         1 <0>         0.0711
     41 H12        -1.0449   -6.5620   -1.4990 H         1 <0>         0.0659
     42 H13        -0.6735   -6.7102    0.2354 H         1 <0>         0.0662
     43 H14        -2.0916   -0.7855    2.0157 H         1 <0>         0.4105
     44 H15        -4.2232    0.8507    5.7096 H         1 <0>         0.1783
     45 H16        -3.3172    3.5658    2.9138 H         1 <0>         0.1416
     46 H17        -4.8664    2.8821    2.3193 H         1 <0>         0.1465
     47 H18        -6.4931    5.2972    6.9181 H         1 <0>         0.1049
     48 H19        -8.1680    6.7320    8.0101 H         1 <0>         0.1093
     49 H20       -10.5014    6.7188    7.2296 H         1 <0>         0.1117
     50 H21       -11.1691    5.2714    5.3543 H         1 <0>         0.1172
@<TRIPOS>BOND
     1    1    2 1
     2    1   31 1
     3    1   32 1
     4    1   33 1
     5    2    3 1
     6    2   34 1
     7    2   35 1
     8    3    4 1
     9    3    5 1
    10    3   12 1
    11    5   10 ar
    12    5    6 ar
    13    6    7 ar
    14    6   36 1
    15    7    8 ar
    16    7   37 1
    17    8    9 ar
    18    8   11 1
    19    9   10 ar
    20    9   38 1
    21   10   39 1
    22   11   40 1
    23   11   41 1
    24   11   42 1
    25   12   13 am
    26   12   43 1
    27   13   14 2
    28   13   15 1
    29   15   19 1
    30   15   16 2
    31   16   17 1
    32   17   18 2
    33   17   44 1
    34   18   19 1
    35   18   20 1
    36   19   45 1
    37   19   46 1
    38   20   21 2
    39   20   22 2
    40   20   23 1
    41   23   24 1
    42   24   29 ar
    43   24   25 ar
    44   25   26 ar
    45   25   47 1
    46   26   27 ar
    47   26   48 1
    48   27   28 ar
    49   27   49 1
    50   28   29 ar
    51   28   50 1
    52   29   30 1
@<TRIPOS>MOLECULE
ZINC66508328
   39    40     0     0     0
SMALL
USER_CHARGES

@<TRIPOS>ATOM
      1 C1          0.0078    1.3532    0.0814 C.2       1 <0>        -0.1820
      2 C2          0.0236    0.0435    0.0591 C.2       1 <0>        -0.1646
      3 C3          1.3377   -0.6940    0.0386 C.3       1 <0>         0.1542
      4 N1          1.3827   -1.6428    1.1539 N.pl3     1 <0>        -0.7327
      5 C4          2.4795   -2.4245    1.3374 C.2       1 <0>         0.5528
      6 O1          3.5240   -2.3267    0.4947 O.3       1 <0>        -0.6367
      7 C5          2.5224   -3.3301    2.4019 C.2       1 <0>        -0.4518
      8 C6          1.4109   -3.4342    3.2987 C.1       1 <0>         0.3000
      9 N2          0.5291   -3.5167    4.0101 N.1       1 <0>        -0.5445
     10 C7          3.6593   -4.1402    2.5921 C.2       1 <0>         0.4205
     11 O2          4.6024   -4.0519    1.8312 O.2       1 <0>        -0.4911
     12 C8          3.7055   -5.1163    3.7394 C.3       1 <0>        -0.1444
     13 H1          3.1072   -4.7589    4.5774 H         1 <0>         0.1095
     14 C9          3.2436   -6.5217    3.2892 C.3       1 <0>        -0.1329
     15 C10         4.5259   -7.2307    2.9128 C.2       1 <0>         0.5292
     16 O3          4.5902   -8.2457    2.2519 O.2       1 <0>        -0.5121
     17 N3          5.5836   -6.5721    3.4171 N.am      1 <0>        -0.5476
     18 C11         5.1623   -5.3875    4.1761 C.3       1 <0>         0.1106
     19 C12         6.9151   -6.9647    3.2416 C.ar      1 <0>         0.2112
     20 C13         7.2087   -8.1619    2.6024 C.ar      1 <0>        -0.1512
     21 C14         8.5250   -8.5472    2.4299 C.ar      1 <0>         0.0062
     22 C15         9.5496   -7.7409    2.8934 C.ar      1 <0>        -0.1384
     23 C16         9.2597   -6.5475    3.5310 C.ar      1 <0>         0.0063
     24 C17         7.9452   -6.1549    3.7011 C.ar      1 <0>        -0.1457
     25 Cl1        10.5481   -5.5391    4.1116 Cl        1 <0>        -0.0580
     26 Cl2         8.8929  -10.0442    1.6314 Cl        1 <0>        -0.0580
     27 H2          0.9365    1.9045    0.0850 H         1 <0>         0.0988
     28 H3         -0.9340    1.8818    0.0916 H         1 <0>         0.0973
     29 H4         -0.9051   -0.5078    0.0555 H         1 <0>         0.1100
     30 H5          1.4362   -1.2347   -0.9027 H         1 <0>         0.0682
     31 H6          2.1562    0.0194    0.1352 H         1 <0>         0.0638
     32 H7          0.6297   -1.7133    1.7613 H         1 <0>         0.3903
     33 H8          2.7471   -7.0408    4.1090 H         1 <0>         0.1107
     34 H9          2.5814   -6.4474    2.4266 H         1 <0>         0.1135
     35 H10         5.7952   -4.5353    3.9284 H         1 <0>         0.0971
     36 H11         5.2036   -5.5905    5.2463 H         1 <0>         0.0826
     37 H12         6.4093   -8.7917    2.2408 H         1 <0>         0.1718
     38 H13        10.5774   -8.0437    2.7575 H         1 <0>         0.1421
     39 H14         7.7196   -5.2210    4.1945 H         1 <0>         0.1447
@<TRIPOS>BOND
     1    1    2 2
     2    1   27 1
     3    1   28 1
     4    2    3 1
     5    2   29 1
     6    3    4 1
     7    3   30 1
     8    3   31 1
     9    4    5 1
    10    4   32 1
    11    5    6 1
    12    5    7 2
    13    7    8 1
    14    7   10 1
    15    8    9 3
    16   10   11 2
    17   10   12 1
    18   12   13 1
    19   12   18 1
    20   12   14 1
    21   14   15 1
    22   14   33 1
    23   14   34 1
    24   15   16 2
    25   15   17 am
    26   17   18 1
    27   17   19 1
    28   18   35 1
    29   18   36 1
    30   19   24 ar
    31   19   20 ar
    32   20   21 ar
    33   20   37 1
    34   21   22 ar
    35   21   26 1
    36   22   23 ar
    37   22   38 1
    38   23   24 ar
    39   23   25 1
    40   24   39 1
@<TRIPOS>MOLECULE
ZINC67631953
   53    54     0     0     0
SMALL
USER_CHARGES

@<TRIPOS>ATOM
      1 C1         -0.0187    1.5258    0.0104 C.3       1 <0>        -0.1628
      2 C2          0.0021   -0.0041    0.0020 C.3       1 <0>         0.1617
      3 H1          0.5123   -0.3556   -0.8948 H         1 <0>         0.0980
      4 C3         -1.4333   -0.5336    0.0129 C.3       1 <0>        -0.0949
      5 C4         -1.4159   -2.0348   -0.1192 C.2       1 <0>         0.4837
      6 O1         -2.5756   -2.7242   -0.1333 O.3       1 <0>        -0.7269
      7 N1         -0.2919   -2.6607   -0.2188 N.2       1 <0>        -1.0524
      8 S1         -0.2728   -4.3102   -0.3639 S.o2      1 <0>         2.5654
      9 O2         -0.8220   -4.7880    0.8565 O.2       1 <0>        -1.0047
     10 O3         -0.9200   -4.5729   -1.6014 O.2       1 <0>        -1.0044
     11 C5          1.4841   -4.7483   -0.4723 C.3       1 <0>        -0.6033
     12 C6          1.6238   -6.2657   -0.6106 C.3       1 <0>        -0.0741
     13 C7          3.0834   -6.6296   -0.7007 C.ar      1 <0>        -0.0644
     14 C8          3.7067   -6.6868   -1.9332 C.ar      1 <0>        -0.1169
     15 C9          5.0456   -7.0206   -2.0158 C.ar      1 <0>        -0.1184
     16 C10         5.7613   -7.2969   -0.8658 C.ar      1 <0>        -0.1296
     17 C11         5.1382   -7.2389    0.3668 C.ar      1 <0>        -0.1187
     18 C12         3.8003   -6.9009    0.4497 C.ar      1 <0>        -0.1171
     19 N2          0.7106   -0.4894    1.1889 N.am      1 <0>        -0.6942
     20 C13         2.0538   -0.5998    1.1737 C.2       1 <0>         0.5249
     21 O4          2.6758   -0.2974    0.1774 O.2       1 <0>        -0.5523
     22 C14         2.7826   -1.0990    2.3946 C.3       1 <0>        -0.1097
     23 C15         2.5019   -0.1652    3.5735 C.3       1 <0>        -0.1088
     24 C16         3.2419   -0.6720    4.8131 C.3       1 <0>        -0.1184
     25 C17         4.7457   -0.7015    4.5327 C.3       1 <0>        -0.1195
     26 C18         5.0264   -1.6354    3.3538 C.3       1 <0>        -0.1203
     27 C19         4.2865   -1.1286    2.1142 C.3       1 <0>        -0.0962
     28 H2          1.0039    1.9031    0.0027 H         1 <0>         0.0558
     29 H3         -0.5459    1.8868   -0.8726 H         1 <0>         0.0607
     30 H4         -0.5289    1.8773    0.9072 H         1 <0>         0.0505
     31 H5         -1.9156   -0.2570    0.9504 H         1 <0>         0.0798
     32 H6         -1.9862   -0.1019   -0.8214 H         1 <0>         0.0912
     33 H7          1.9269   -4.2620   -1.3414 H         1 <0>         0.1228
     34 H8          1.9976   -4.4170    0.4304 H         1 <0>         0.1201
     35 H9          1.1810   -6.7521    0.2585 H         1 <0>         0.0831
     36 H10         1.1104   -6.5970   -1.5132 H         1 <0>         0.0833
     37 H11         3.1476   -6.4709   -2.8316 H         1 <0>         0.1234
     38 H12         5.5324   -7.0660   -2.9787 H         1 <0>         0.1204
     39 H13         6.8071   -7.5585   -0.9304 H         1 <0>         0.1184
     40 H14         5.6972   -7.4551    1.2652 H         1 <0>         0.1201
     41 H15         3.3144   -6.8519    1.4130 H         1 <0>         0.1228
     42 H16         0.2131   -0.7312    1.9857 H         1 <0>         0.3935
     43 H17         2.4385   -2.1044    2.6374 H         1 <0>         0.0943
     44 H18         2.8460    0.8402    3.3307 H         1 <0>         0.0653
     45 H19         1.4305   -0.1441    3.7733 H         1 <0>         0.0668
     46 H20         3.0419   -0.0067    5.6530 H         1 <0>         0.0619
     47 H21         2.8977   -1.6773    5.0559 H         1 <0>         0.0641
     48 H22         5.0898    0.3038    4.2899 H         1 <0>         0.0604
     49 H23         5.2729   -1.0626    5.4158 H         1 <0>         0.0582
     50 H24         6.0978   -1.6564    3.1541 H         1 <0>         0.0610
     51 H25         4.6823   -2.6407    3.5966 H         1 <0>         0.0614
     52 H26         4.4865   -1.7939    1.2743 H         1 <0>         0.0683
     53 H27         4.6306   -0.1232    1.8714 H         1 <0>         0.0666
@<TRIPOS>BOND
     1    1    2 1
     2    1   28 1
     3    1   29 1
     4    1   30 1
     5    2    3 1
     6    2    4 1
     7    2   19 1
     8    4    5 1
     9    4   31 1
    10    4   32 1
    11    5    6 1
    12    5    7 2
    13    7    8 1
    14    8    9 2
    15    8   10 2
    16    8   11 1
    17   11   12 1
    18   11   33 1
    19   11   34 1
    20   12   13 1
    21   12   35 1
    22   12   36 1
    23   13   18 ar
    24   13   14 ar
    25   14   15 ar
    26   14   37 1
    27   15   16 ar
    28   15   38 1
    29   16   17 ar
    30   16   39 1
    31   17   18 ar
    32   17   40 1
    33   18   41 1
    34   19   20 am
    35   19   42 1
    36   20   21 2
    37   20   22 1
    38   22   27 1
    39   22   23 1
    40   22   43 1
    41   23   24 1
    42   23   44 1
    43   23   45 1
    44   24   25 1
    45   24   46 1
    46   24   47 1
    47   25   26 1
    48   25   48 1
    49   25   49 1
    50   26   27 1
    51   26   50 1
    52   26   51 1
    53   27   52 1
    54   27   53 1
@<TRIPOS>MOLECULE
ZINC16850871
   45    47     0     0     0
SMALL
USER_CHARGES
(3R)-N-[(1R)-2-(5-bromo-1H-indol-3-yl)-1-methyl-ethyl]-2,2-dimethyl-5-oxo-tetrahydrofuran-3-carboxamide
@<TRIPOS>ATOM
      1 C1          5.3601   -1.4509    1.5373 C.3       1 <0>        -0.1662
      2 C2          4.5492   -2.4006    0.6534 C.3       1 <0>         0.1459
      3 H1          3.9395   -3.0500    1.2816 H         1 <0>         0.0911
      4 C3          5.5017   -3.2525   -0.1879 C.3       1 <0>        -0.0549
      5 C4          4.7098   -4.2710   -0.9668 C.2       1 <0>        -0.1680
      6 C5          4.4702   -5.5417   -0.6065 C.2       1 <0>         0.0654
      7 N1          3.7135   -6.1629   -1.5623 N.pl3     1 <0>        -0.5905
      8 H2          3.4117   -7.0839   -1.5225 H         1 <0>         0.4202
      9 C6          3.4482   -5.2871   -2.5919 C.ar      1 <0>         0.1101
     10 C7          4.0607   -4.0638   -2.2637 C.ar      1 <0>        -0.0918
     11 C8          3.9581   -2.9772   -3.1341 C.ar      1 <0>        -0.0476
     12 C9          3.2558   -3.1113   -4.3112 C.ar      1 <0>        -0.1140
     13 C10         2.6515   -4.3193   -4.6344 C.ar      1 <0>        -0.0738
     14 C11         2.7440   -5.4003   -3.7857 C.ar      1 <0>        -0.1166
     15 Br1         3.1131   -1.6425   -5.4936 Br        1 <0>        -0.0483
     16 N2          3.6800   -1.6213   -0.2318 N.am      1 <0>        -0.7163
     17 C12         2.4745   -1.2045    0.2035 C.2       1 <0>         0.5292
     18 O1          2.1093   -1.4745    1.3280 O.2       1 <0>        -0.5275
     19 C13         1.5805   -0.4028   -0.7070 C.3       1 <0>        -0.1428
     20 H3          2.1646    0.0810   -1.4898 H         1 <0>         0.1210
     21 C14         0.7728    0.6389    0.0995 C.3       1 <0>        -0.1701
     22 C15        -0.6031    0.0086    0.2162 C.2       1 <0>         0.4934
     23 O2         -1.3840    0.1539    1.1266 O.2       1 <0>        -0.4388
     24 O3         -0.7899   -0.7420   -0.8845 O.3       1 <0>        -0.3440
     25 C16         0.4834   -1.2976   -1.3197 C.3       1 <0>         0.1312
     26 C17         0.6315   -2.7329   -0.8110 C.3       1 <0>        -0.1738
     27 C18         0.5739   -1.2703   -2.8468 C.3       1 <0>        -0.1501
     28 H4          6.0068   -2.0307    2.1959 H         1 <0>         0.0686
     29 H5          5.9698   -0.8014    0.9091 H         1 <0>         0.0590
     30 H6          4.6815   -0.8439    2.1367 H         1 <0>         0.0629
     31 H7          6.0483   -2.6112   -0.8793 H         1 <0>         0.0784
     32 H8          6.2065   -3.7642    0.4675 H         1 <0>         0.0913
     33 H9          4.8207   -6.0044    0.3042 H         1 <0>         0.1736
     34 H10         4.4266   -2.0363   -2.8856 H         1 <0>         0.1262
     35 H11         2.1032   -4.4119   -5.5603 H         1 <0>         0.1366
     36 H12         2.2703   -6.3350   -4.0473 H         1 <0>         0.1297
     37 H13         3.9722   -1.4053   -1.1312 H         1 <0>         0.3970
     38 H14         1.2126    0.7854    1.0860 H         1 <0>         0.1181
     39 H15         0.7197    1.5846   -0.4399 H         1 <0>         0.1243
     40 H16        -0.1200   -3.3653   -1.2837 H         1 <0>         0.0733
     41 H17         1.6262   -3.1048   -1.0569 H         1 <0>         0.0821
     42 H18         0.4939   -2.7512    0.2702 H         1 <0>         0.0741
     43 H19         0.4681   -0.2441   -3.1987 H         1 <0>         0.0731
     44 H20         1.5405   -1.6642   -3.1607 H         1 <0>         0.0834
     45 H21        -0.2226   -1.8830   -3.2690 H         1 <0>         0.0762
@<TRIPOS>BOND
     1    1    2 1
     2    1   28 1
     3    1   29 1
     4    1   30 1
     5    2    3 1
     6    2    4 1
     7    2   16 1
     8    4    5 1
     9    4   31 1
    10    4   32 1
    11    5   10 1
    12    5    6 2
    13    6    7 1
    14    6   33 1
    15    7    8 1
    16    7    9 1
    17    9   14 ar
    18    9   10 ar
    19   10   11 ar
    20   11   12 ar
    21   11   34 1
    22   12   13 ar
    23   12   15 1
    24   13   14 ar
    25   13   35 1
    26   14   36 1
    27   16   17 am
    28   16   37 1
    29   17   18 2
    30   17   19 1
    31   19   20 1
    32   19   25 1
    33   19   21 1
    34   21   22 1
    35   21   38 1
    36   21   39 1
    37   22   23 2
    38   22   24 1
    39   24   25 1
    40   25   26 1
    41   25   27 1
    42   26   40 1
    43   26   41 1
    44   26   42 1
    45   27   43 1
    46   27   44 1
    47   27   45 1
@<TRIPOS>MOLECULE
ZINC42968645
   41    43     0     0     0
SMALL
USER_CHARGES

@<TRIPOS>ATOM
      1 C1          0.7818   -0.9563   -1.3819 C.ar      1 <0>        -0.0986
      2 C2          2.0716   -0.5701   -1.6945 C.ar      1 <0>        -0.0866
      3 C3          2.6952    0.4196   -0.9562 C.ar      1 <0>        -0.0871
      4 C4          2.0276    1.0224    0.0946 C.ar      1 <0>        -0.0858
      5 C5          0.7378    0.6356    0.4065 C.ar      1 <0>        -0.1062
      6 C6          0.1150   -0.3535   -0.3316 C.ar      1 <0>        -0.0623
      7 C7         -1.2913   -0.7748    0.0088 C.3       1 <0>        -0.0620
      8 C8         -1.6488   -0.5860    1.4925 C.3       1 <0>        -0.1253
      9 C9         -2.3883   -1.9315    1.4044 C.3       1 <0>        -0.1422
     10 C10        -1.4409   -2.2868    0.2463 C.3       1 <0>        -0.1086
     11 C11        -2.3175   -0.2081   -0.9382 C.2       1 <0>         0.5472
     12 O1         -2.9485   -0.9484   -1.6625 O.2       1 <0>        -0.5269
     13 N1         -2.5339    1.1215   -0.9803 N.am      1 <0>        -0.5162
     14 N2         -3.5577    1.6395   -1.7843 N.am      1 <0>        -0.5218
     15 C12        -3.7741    2.9691   -1.8263 C.2       1 <0>         0.5133
     16 O2         -3.0826    3.7172   -1.1682 O.2       1 <0>        -0.5135
     17 C13        -4.8754    3.5262   -2.6911 C.3       1 <0>         0.0769
     18 H1         -4.7468    3.2002   -3.7232 H         1 <0>         0.1065
     19 C14        -6.2587    3.0797   -2.1545 C.3       1 <0>        -0.1494
     20 C15        -7.1692    4.2078   -2.7116 C.3       1 <0>        -0.1536
     21 C16        -6.2396    5.4389   -2.6515 C.3       1 <0>         0.0468
     22 O3         -4.8882    4.9609   -2.6194 O.3       1 <0>        -0.3512
     23 Br1         4.4600    0.9479   -1.3830 Br        1 <0>        -0.0455
     24 H2          0.2933   -1.7259   -1.9611 H         1 <0>         0.1345
     25 H3          2.5926   -1.0413   -2.5148 H         1 <0>         0.1362
     26 H4          2.5142    1.7949    0.6715 H         1 <0>         0.1372
     27 H5          0.2165    1.1063    1.2269 H         1 <0>         0.1362
     28 H6         -0.7842   -0.6056    2.1559 H         1 <0>         0.1023
     29 H7         -2.3071    0.2627    1.6784 H         1 <0>         0.0766
     30 H8         -2.2568   -2.5605    2.2848 H         1 <0>         0.0800
     31 H9         -3.4313   -1.8375    1.1021 H         1 <0>         0.0841
     32 H10        -1.9313   -2.8112   -0.5738 H         1 <0>         0.0894
     33 H11        -0.5194   -2.7714    0.5690 H         1 <0>         0.0972
     34 H12        -1.9808    1.7199   -0.4539 H         1 <0>         0.4333
     35 H13        -4.1108    1.0412   -2.3106 H         1 <0>         0.4324
     36 H14        -6.5429    2.1089   -2.5606 H         1 <0>         0.0966
     37 H15        -6.2717    3.0666   -1.0647 H         1 <0>         0.0869
     38 H16        -7.4656    3.9953   -3.7388 H         1 <0>         0.0846
     39 H17        -8.0432    4.3503   -2.0761 H         1 <0>         0.0903
     40 H18        -6.3899    6.0593   -3.5350 H         1 <0>         0.0781
     41 H19        -6.4497    6.0173   -1.7519 H         1 <0>         0.0761
@<TRIPOS>BOND
     1    1    6 ar
     2    1    2 ar
     3    1   24 1
     4    2    3 ar
     5    2   25 1
     6    3    4 ar
     7    3   23 1
     8    4    5 ar
     9    4   26 1
    10    5    6 ar
    11    5   27 1
    12    6    7 1
    13    7   10 1
    14    7    8 1
    15    7   11 1
    16    8    9 1
    17    8   28 1
    18    8   29 1
    19    9   10 1
    20    9   30 1
    21    9   31 1
    22   10   32 1
    23   10   33 1
    24   11   12 2
    25   11   13 am
    26   13   14 1
    27   13   34 1
    28   14   15 am
    29   14   35 1
    30   15   16 2
    31   15   17 1
    32   17   18 1
    33   17   22 1
    34   17   19 1
    35   19   20 1
    36   19   36 1
    37   19   37 1
    38   20   21 1
    39   20   38 1
    40   20   39 1
    41   21   22 1
    42   21   40 1
    43   21   41 1
@<TRIPOS>MOLECULE
ZINC58194615
   43    44     0     0     0
SMALL
USER_CHARGES

@<TRIPOS>ATOM
      1 C1          0.2198    1.6082    0.3117 C.3       1 <0>        -0.1482
      2 C2          0.1882    0.1038    0.2290 C.ar      1 <0>         0.0244
      3 C3          0.1847   -0.5208   -1.0044 C.ar      1 <0>        -0.1401
      4 C4          0.1557   -1.9005   -1.0802 C.ar      1 <0>         0.0167
      5 C5          0.1307   -2.6561    0.0773 C.ar      1 <0>        -0.6892
      6 C6          0.1351   -2.0317    1.3104 C.ar      1 <0>         0.0252
      7 C7          0.1684   -0.6516    1.3863 C.ar      1 <0>        -0.2090
      8 C8          0.1785    0.0290    2.7307 C.3       1 <0>         0.5119
      9 F1          0.1548   -0.9368    3.7426 F         1 <0>        -0.1730
     10 F2          1.3371    0.8036    2.8525 F         1 <0>        -0.1721
     11 F3         -0.9469    0.8522    2.8452 F         1 <0>        -0.1714
     12 S1          0.0925   -4.4151   -0.0194 S.o2      1 <0>         2.6905
     13 O1         -0.4774   -4.8765    1.1978 O.2       1 <0>        -0.9434
     14 O2         -0.4564   -4.7402   -1.2891 O.2       1 <0>        -0.9501
     15 N1          1.6635   -4.9387   -0.0348 N.pl3     1 <0>        -0.9927
     16 C9          2.3422   -5.2324   -1.3044 C.3       1 <0>         0.1340
     17 C10         2.9156   -6.6515   -1.2402 C.3       1 <0>        -0.1227
     18 H1          2.0994   -7.3711   -1.1755 H         1 <0>         0.1073
     19 C11         3.8097   -6.7808   -0.0049 C.3       1 <0>        -0.1105
     20 C12         2.9779   -6.5384    1.2566 C.3       1 <0>        -0.1256
     21 C13         2.4070   -5.1126    1.2204 C.3       1 <0>         0.1473
     22 H2          3.2208   -4.3890    1.2664 H         1 <0>         0.0812
     23 C14         1.4646   -4.9051    2.4077 C.3       1 <0>        -0.1887
     24 C15         3.7278   -6.9224   -2.4804 C.2       1 <0>         0.5260
     25 O3          3.8380   -6.0661   -3.3321 O.2       1 <0>        -0.5393
     26 N2          4.3316   -8.1163   -2.6430 N.am      1 <0>        -0.8532
     27 H3          1.2548    1.9492    0.3350 H         1 <0>         0.0933
     28 H4         -0.2824    2.0306   -0.5587 H         1 <0>         0.0873
     29 H5         -0.2903    1.9330    1.2186 H         1 <0>         0.0826
     30 H6          0.2042    0.0694   -1.9086 H         1 <0>         0.1483
     31 H7          0.1522   -2.3884   -2.0438 H         1 <0>         0.1515
     32 H8          0.1152   -2.6220    2.2146 H         1 <0>         0.1597
     33 H9          1.6281   -5.1636   -2.1250 H         1 <0>         0.1051
     34 H10         3.1509   -4.5183   -1.4601 H         1 <0>         0.0836
     35 H11         4.2386   -7.7823    0.0297 H         1 <0>         0.0743
     36 H12         4.6114   -6.0443   -0.0583 H         1 <0>         0.0738
     37 H13         2.1611   -7.2590    1.2978 H         1 <0>         0.0762
     38 H14         3.6101   -6.6537    2.1370 H         1 <0>         0.0846
     39 H15         0.7347   -5.7141    2.4380 H         1 <0>         0.1027
     40 H16         2.0410   -4.9010    3.3328 H         1 <0>         0.0751
     41 H17         0.9465   -3.9524    2.2982 H         1 <0>         0.0597
     42 H18         4.2435   -8.8012   -1.9618 H         1 <0>         0.4025
     43 H19         4.8544   -8.2906   -3.4413 H         1 <0>         0.4042
@<TRIPOS>BOND
     1    1    2 1
     2    1   27 1
     3    1   28 1
     4    1   29 1
     5    2    7 ar
     6    2    3 ar
     7    3    4 ar
     8    3   30 1
     9    4    5 ar
    10    4   31 1
    11    5    6 ar
    12    5   12 1
    13    6    7 ar
    14    6   32 1
    15    7    8 1
    16    8    9 1
    17    8   10 1
    18    8   11 1
    19   12   13 2
    20   12   14 2
    21   12   15 1
    22   15   21 1
    23   15   16 1
    24   16   17 1
    25   16   33 1
    26   16   34 1
    27   17   18 1
    28   17   19 1
    29   17   24 1
    30   19   20 1
    31   19   35 1
    32   19   36 1
    33   20   21 1
    34   20   37 1
    35   20   38 1
    36   21   22 1
    37   21   23 1
    38   23   39 1
    39   23   40 1
    40   23   41 1
    41   24   25 2
    42   24   26 am
    43   26   42 1
    44   26   43 1
@<TRIPOS>MOLECULE
ZINC66764697
   44    46     0     0     0
SMALL
USER_CHARGES

@<TRIPOS>ATOM
      1 C1         -0.5279    0.9685   -0.5853 C.ar      1 <0>        -0.1243
      2 C2          0.5911    1.7666   -0.4381 C.ar      1 <0>        -0.1181
      3 C3          1.8395    1.1884   -0.3028 C.ar      1 <0>        -0.1185
      4 C4          1.9687   -0.1878   -0.3143 C.ar      1 <0>        -0.0803
      5 C5          0.8496   -0.9859   -0.4606 C.ar      1 <0>        -0.1139
      6 C6         -0.3986   -0.4078   -0.5973 C.ar      1 <0>        -0.1171
      7 C7          3.3297   -0.8181   -0.1679 C.3       1 <0>        -0.0435
      8 H1          4.0688   -0.0233   -0.0664 H         1 <0>         0.0748
      9 C8          3.3410   -1.6558    1.1072 C.3       1 <0>        -0.1084
     10 C9          4.7541   -1.7576    1.6262 C.3       1 <0>        -0.1325
     11 C10         5.4370   -3.0148    1.0578 C.3       1 <0>         0.0948
     12 N1          5.1061   -3.2330   -0.3640 N.am      1 <0>        -0.5980
     13 C11         5.0615   -2.1579   -1.3297 C.3       1 <0>         0.1196
     14 C12         3.6265   -1.5783   -1.3916 C.3       1 <0>        -0.1270
     15 C13         4.8347   -4.4861   -0.7793 C.2       1 <0>         0.5711
     16 O1          4.4471   -4.6796   -1.9159 O.2       1 <0>        -0.5270
     17 C14         5.0072   -5.6205    0.1426 C.2       1 <0>        -0.2130
     18 C15         4.1581   -6.7851    0.0743 C.2       1 <0>         0.0470
     19 C16         4.4199   -7.7542    0.9742 C.2       1 <0>        -0.8032
     20 S1          5.7930   -7.0918    1.8925 S.3       1 <0>         0.3352
     21 C17         5.9901   -5.6225    1.1067 C.2       1 <0>        -0.1873
     22 S2          3.6020   -9.3000    1.1889 S.o2      1 <0>         2.7388
     23 O2          3.8310   -9.6973    2.5338 O.2       1 <0>        -0.9530
     24 O3          2.2954   -9.1461    0.6519 O.2       1 <0>        -0.9474
     25 N2          4.3807  -10.4032    0.2303 N.pl3     1 <0>        -1.2452
     26 H2         -1.5037    1.4201   -0.6865 H         1 <0>         0.1209
     27 H3          0.4902    2.8418   -0.4291 H         1 <0>         0.1213
     28 H4          2.7138    1.8120   -0.1885 H         1 <0>         0.1198
     29 H5          0.9506   -2.0612   -0.4700 H         1 <0>         0.1183
     30 H6         -1.2729   -1.0313   -0.7120 H         1 <0>         0.1213
     31 H7          2.7106   -1.1816    1.8594 H         1 <0>         0.0696
     32 H8          2.9605   -2.6539    0.8900 H         1 <0>         0.0662
     33 H9          5.3150   -0.8734    1.3234 H         1 <0>         0.0718
     34 H10         4.7361   -1.8167    2.7144 H         1 <0>         0.0814
     35 H11         6.5170   -2.9065    1.1573 H         1 <0>         0.0685
     36 H12         5.1156   -3.8829    1.6333 H         1 <0>         0.0892
     37 H13         5.7588   -1.3744   -1.0330 H         1 <0>         0.0791
     38 H14         5.3418   -2.5399   -2.3113 H         1 <0>         0.0869
     39 H15         2.9099   -2.3934   -1.4927 H         1 <0>         0.0716
     40 H16         3.5429   -0.9187   -2.2553 H         1 <0>         0.0766
     41 H17         3.3632   -6.8746   -0.6513 H         1 <0>         0.1645
     42 H18         6.7200   -4.8533    1.3116 H         1 <0>         0.2057
     43 H19         4.4083  -11.3374    0.4901 H         1 <0>         0.4247
     44 H20         4.8092  -10.1153   -0.5909 H         1 <0>         0.4193
@<TRIPOS>BOND
     1    1    6 ar
     2    1    2 ar
     3    1   26 1
     4    2    3 ar
     5    2   27 1
     6    3    4 ar
     7    3   28 1
     8    4    5 ar
     9    4    7 1
    10    5    6 ar
    11    5   29 1
    12    6   30 1
    13    7    8 1
    14    7   14 1
    15    7    9 1
    16    9   10 1
    17    9   31 1
    18    9   32 1
    19   10   11 1
    20   10   33 1
    21   10   34 1
    22   11   12 1
    23   11   35 1
    24   11   36 1
    25   12   13 1
    26   12   15 am
    27   13   14 1
    28   13   37 1
    29   13   38 1
    30   14   39 1
    31   14   40 1
    32   15   16 2
    33   15   17 1
    34   17   21 2
    35   17   18 1
    36   18   19 2
    37   18   41 1
    38   19   20 1
    39   19   22 1
    40   20   21 1
    41   21   42 1
    42   22   23 2
    43   22   24 2
    44   22   25 1
    45   25   43 1
    46   25   44 1
@<TRIPOS>MOLECULE
ZINC67645694
   48    51     0     0     0
SMALL
USER_CHARGES

@<TRIPOS>ATOM
      1 C1         -0.0166    1.3751    0.0096 C.ar      1 <0>        -0.1141
      2 C2          1.1740    2.0780    0.0020 C.ar      1 <0>        -0.1293
      3 C3          2.3723    1.3951   -0.0101 C.ar      1 <0>        -0.1030
      4 C4          2.3933    0.0061   -0.0172 C.ar      1 <0>        -0.0987
      5 C5          1.2078   -0.6937   -0.0148 C.ar      1 <0>        -0.0689
      6 C6          0.0021   -0.0041    0.0020 C.ar      1 <0>        -0.1276
      7 C7          1.1549   -2.1988   -0.0383 C.3       1 <0>        -0.0837
      8 C8          2.5009   -2.7904    0.3753 C.3       1 <0>        -0.1162
      9 C9          3.5989   -2.1301   -0.4667 C.3       1 <0>        -0.1256
     10 C10         3.7368   -0.6751   -0.0234 C.3       1 <0>         0.2062
     11 H1          4.1603   -0.6438    0.9805 H         1 <0>         0.1007
     12 N1          4.6309    0.0285   -0.9463 N.am      1 <0>        -0.7379
     13 C11         5.3211    1.1069   -0.5252 C.2       1 <0>         0.7055
     14 O1          5.2016    1.4957    0.6206 O.2       1 <0>        -0.5813
     15 N2          6.1437    1.7541   -1.3742 N.am      1 <0>        -0.7444
     16 C12         6.8939    2.9263   -0.9165 C.3       1 <0>         0.1789
     17 C13         7.7324    3.4598   -2.0493 C.ar      1 <0>        -0.0750
     18 C14         9.0194    2.9896   -2.2359 C.ar      1 <0>        -0.0897
     19 C15         9.7914    3.4760   -3.2731 C.ar      1 <0>        -0.0879
     20 C16         9.2748    4.4381   -4.1294 C.ar      1 <0>         0.0950
     21 C17         7.9809    4.9096   -3.9404 C.ar      1 <0>         0.1044
     22 C18         7.2113    4.4141   -2.9031 C.ar      1 <0>        -0.1171
     23 F1          7.4741    5.8465   -4.7713 F         1 <0>        -0.1241
     24 N3         10.0570    4.9342   -5.1834 N.pl3     1 <0>        -0.4215
     25 C19         9.6805    5.0414   -6.4971 C.2       1 <0>        -0.0449
     26 C20        10.7283    5.5648   -7.1617 C.2       1 <0>        -0.0203
     27 N4         11.7197    5.7732   -6.2829 N.2       1 <0>        -0.4823
     28 C21        11.3280    5.4042   -5.0937 C.2       1 <0>         0.1934
     29 H2         -0.9580    1.9042    0.0259 H         1 <0>         0.1208
     30 H3          1.1658    3.1579    0.0052 H         1 <0>         0.1189
     31 H4          3.3020    1.9447   -0.0145 H         1 <0>         0.1311
     32 H5         -0.9284   -0.5523    0.0088 H         1 <0>         0.1207
     33 H6          0.3842   -2.5421    0.6519 H         1 <0>         0.0772
     34 H7          0.9093   -2.5341   -1.0459 H         1 <0>         0.0774
     35 H8          2.6797   -2.5923    1.4321 H         1 <0>         0.0707
     36 H9          2.4991   -3.8659    0.1981 H         1 <0>         0.0759
     37 H10         4.5434   -2.6519   -0.3126 H         1 <0>         0.0763
     38 H11         3.3258   -2.1683   -1.5213 H         1 <0>         0.0723
     39 H12         4.7263   -0.2817   -1.8604 H         1 <0>         0.3977
     40 H13         6.2390    1.4439   -2.2883 H         1 <0>         0.3985
     41 H14         6.1976    3.6969   -0.5857 H         1 <0>         0.0826
     42 H15         7.5419    2.6419   -0.0874 H         1 <0>         0.0856
     43 H16         9.4218    2.2411   -1.5693 H         1 <0>         0.1455
     44 H17        10.7965    3.1080   -3.4172 H         1 <0>         0.1462
     45 H18         6.2042    4.7762   -2.7576 H         1 <0>         0.1495
     46 H19         8.7267    4.7598   -6.9183 H         1 <0>         0.1762
     47 H20        10.7642    5.7791   -8.2197 H         1 <0>         0.1765
     48 H21        11.9170    5.4607   -4.1901 H         1 <0>         0.2100
@<TRIPOS>BOND
     1    1    6 ar
     2    1    2 ar
     3    1   29 1
     4    2    3 ar
     5    2   30 1
     6    3    4 ar
     7    3   31 1
     8    4   10 1
     9    4    5 ar
    10    5    6 ar
    11    5    7 1
    12    6   32 1
    13    7    8 1
    14    7   33 1
    15    7   34 1
    16    8    9 1
    17    8   35 1
    18    8   36 1
    19    9   10 1
    20    9   37 1
    21    9   38 1
    22   10   11 1
    23   10   12 1
    24   12   13 am
    25   12   39 1
    26   13   14 2
    27   13   15 am
    28   15   16 1
    29   15   40 1
    30   16   17 1
    31   16   41 1
    32   16   42 1
    33   17   22 ar
    34   17   18 ar
    35   18   19 ar
    36   18   43 1
    37   19   20 ar
    38   19   44 1
    39   20   21 ar
    40   20   24 1
    41   21   22 ar
    42   21   23 1
    43   22   45 1
    44   24   28 1
    45   24   25 1
    46   25   26 2
    47   25   46 1
    48   26   27 1
    49   26   47 1
    50   27   28 2
    51   28   48 1
@<TRIPOS>MOLECULE
ZINC12304914
   43    46     0     0     0
SMALL
USER_CHARGES
N-[(4R)-1-(2-fluorophenyl)-4,5,6,7-tetrahydroindazol-4-yl]-5-(trifluoromethyl)-2H-pyrazole-3-carboxamide
@<TRIPOS>ATOM
      1 C1          9.1338    3.8219   -5.1370 C.ar      1 <0>        -0.1124
      2 C2          9.6913    2.8007   -5.8846 C.ar      1 <0>        -0.0837
      3 C3          9.2132    1.5094   -5.7617 C.ar      1 <0>        -0.1404
      4 C4          8.1783    1.2345   -4.8859 C.ar      1 <0>         0.1155
      5 C5          7.6131    2.2608   -4.1375 C.ar      1 <0>         0.1106
      6 C6          8.0967    3.5555   -4.2645 C.ar      1 <0>        -0.0942
      7 N1          6.5604    1.9874   -3.2519 N.pl3     1 <0>        -0.3209
      8 C7          6.4707    2.4016   -1.9746 C.2       1 <0>         0.1033
      9 C8          5.3042    1.9290   -1.4655 C.2       1 <0>        -0.2498
     10 C9          4.6617    1.2014   -2.4651 C.2       1 <0>         0.0809
     11 N2          5.4123    1.2340   -3.5397 N.2       1 <0>        -0.2811
     12 C10         4.8341    2.1798   -0.0543 C.3       1 <0>         0.2290
     13 H1          4.9952    1.2877    0.5509 H         1 <0>         0.1050
     14 C11         5.6414    3.3488    0.5235 C.3       1 <0>        -0.1276
     15 C12         7.1350    3.1008    0.2959 C.3       1 <0>        -0.1095
     16 C13         7.4555    3.2388   -1.1975 C.3       1 <0>        -0.0613
     17 N3          3.4093    2.5203   -0.0620 N.am      1 <0>        -0.7171
     18 C14         2.4825    1.5421   -0.0344 C.2       1 <0>         0.5941
     19 O1          2.8292    0.3767   -0.0032 O.2       1 <0>        -0.5025
     20 C15         1.0512    1.8841   -0.0421 C.2       1 <0>        -0.0309
     21 C16        -0.0141    1.0008   -0.0170 C.2       1 <0>        -0.1021
     22 C17        -1.1587    1.8008   -0.0444 C.2       1 <0>        -0.0685
     23 N4         -0.7738    3.0513   -0.0730 N.2       1 <0>        -0.2047
     24 N5          0.5078    3.1369   -0.0763 N.pl3     1 <0>        -0.3577
     25 H2          1.0283    3.9904   -0.1003 H         1 <0>         0.4602
     26 C18        -2.5838    1.3110   -0.0382 C.3       1 <0>         0.5609
     27 F1         -3.0314    1.1952    1.2822 F         1 <0>        -0.1672
     28 F2         -3.3928    2.2214   -0.7267 F         1 <0>        -0.1660
     29 F3         -2.6503    0.0618   -0.6644 F         1 <0>        -0.1634
     30 F4          7.7145   -0.0283   -4.7615 F         1 <0>        -0.1211
     31 H3          9.5102    4.8294   -5.2354 H         1 <0>         0.1422
     32 H4         10.5024    3.0124   -6.5656 H         1 <0>         0.1427
     33 H5          9.6507    0.7140   -6.3468 H         1 <0>         0.1471
     34 H6          7.6622    4.3542   -3.6817 H         1 <0>         0.1385
     35 H7          3.7106    0.6983   -2.3712 H         1 <0>         0.1841
     36 H8          5.3471    4.2737    0.0276 H         1 <0>         0.0733
     37 H9          5.4459    3.4318    1.5926 H         1 <0>         0.0815
     38 H10         7.7147    3.8309    0.8607 H         1 <0>         0.0848
     39 H11         7.3916    2.0958    0.6311 H         1 <0>         0.0757
     40 H12         7.3664    4.2830   -1.4972 H         1 <0>         0.0890
     41 H13         8.4689    2.8864   -1.3896 H         1 <0>         0.0857
     42 H14         3.1328    3.4497   -0.0869 H         1 <0>         0.3959
     43 H15         0.0303   -0.0779    0.0128 H         1 <0>         0.1819
@<TRIPOS>BOND
     1    1    6 ar
     2    1    2 ar
     3    1   31 1
     4    2    3 ar
     5    2   32 1
     6    3    4 ar
     7    3   33 1
     8    4    5 ar
     9    4   30 1
    10    5    6 ar
    11    5    7 1
    12    6   34 1
    13    7   11 1
    14    7    8 1
    15    8   16 1
    16    8    9 2
    17    9   10 1
    18    9   12 1
    19   10   11 2
    20   10   35 1
    21   12   13 1
    22   12   14 1
    23   12   17 1
    24   14   15 1
    25   14   36 1
    26   14   37 1
    27   15   16 1
    28   15   38 1
    29   15   39 1
    30   16   40 1
    31   16   41 1
    32   17   18 am
    33   17   42 1
    34   18   19 2
    35   18   20 1
    36   20   24 1
    37   20   21 2
    38   21   22 1
    39   21   43 1
    40   22   23 2
    41   22   26 1
    42   23   24 1
    43   24   25 1
    44   26   27 1
    45   26   28 1
    46   26   29 1
@<TRIPOS>MOLECULE
ZINC39228267
   59    63     0     0     0
SMALL
USER_CHARGES

@<TRIPOS>ATOM
      1 C1         -2.0343    5.7373    5.1733 C.ar      1 <0>        -0.1468
      2 C2         -1.6896    4.6630    5.9814 C.ar      1 <0>        -0.1012
      3 C3         -2.2069    3.4089    5.7403 C.ar      1 <0>        -0.1299
      4 C4         -3.0830    3.2146    4.6781 C.ar      1 <0>         0.1001
      5 N1         -3.7517    2.1122    4.1917 N.pl3     1 <0>        -0.5832
      6 C5         -4.5003    2.4649    3.1057 C.2       1 <0>         0.0795
      7 H1         -3.6983    1.2186    4.5652 H         1 <0>         0.4134
      8 C6         -5.3765    1.5542    2.2733 C.3       1 <0>         0.1789
      9 N2         -6.1892    2.4097    1.3916 N.am      1 <0>        -0.5980
     10 C7         -5.5282    3.5247    0.6969 C.3       1 <0>         0.1120
     11 C8         -5.0239    4.5316    1.7383 C.3       1 <0>        -0.0566
     12 C9         -4.3494    3.7798    2.8564 C.2       1 <0>        -0.1591
     13 C10        -3.4300    4.3077    3.8605 C.ar      1 <0>        -0.0955
     14 C11        -2.8972    5.5705    4.1270 C.ar      1 <0>        -0.0721
     15 C12        -7.5063    2.1766    1.2260 C.2       1 <0>         0.5374
     16 O1         -8.1824    2.9493    0.5804 O.2       1 <0>        -0.5260
     17 C13        -8.1390    0.9560    1.8430 C.3       1 <0>        -0.0949
     18 H2         -7.3984    0.4199    2.4366 H         1 <0>         0.0986
     19 C14        -8.6743    0.0407    0.7397 C.3       1 <0>        -0.0732
     20 C15        -9.8694    0.6671    0.0830 C.2       1 <0>        -0.1666
     21 C16       -10.5541    1.6377    0.5975 C.2       1 <0>        -0.1196
     22 C17       -10.2424    2.2788    1.9181 C.3       1 <0>        -0.0844
     23 C18        -9.3098    1.3792    2.7391 C.3       1 <0>        -0.0954
     24 H3         -9.8553    0.4957    3.0709 H         1 <0>         0.1092
     25 C19        -8.7864    2.1346    3.9334 C.2       1 <0>         0.5145
     26 O2         -7.5943    2.3188    4.0596 O.2       1 <0>        -0.5290
     27 N3         -9.6429    2.6055    4.8613 N.am      1 <0>        -0.7213
     28 C20        -9.1341    3.3399    6.0223 C.3       1 <0>         0.1141
     29 C21       -10.3048    3.7600    6.9132 C.3       1 <0>         0.0676
     30 H4        -11.0356    4.3157    6.3257 H         1 <0>         0.0882
     31 C22        -9.7905    4.6373    8.0748 C.3       1 <0>        -0.1483
     32 C23       -10.6533    4.1434    9.2680 C.3       1 <0>        -0.1562
     33 C24       -10.8074    2.6419    8.9177 C.3       1 <0>         0.0491
     34 O3        -10.9213    2.6002    7.4845 O.3       1 <0>        -0.3762
     35 H5         -1.6207    6.7142    5.3757 H         1 <0>         0.1211
     36 H6         -1.0091    4.8112    6.8068 H         1 <0>         0.1240
     37 H7         -1.9324    2.5789    6.3745 H         1 <0>         0.1181
     38 H8         -4.7552    0.8888    1.6739 H         1 <0>         0.0807
     39 H9         -6.0266    0.9693    2.9240 H         1 <0>         0.1079
     40 H10        -4.6859    3.1459    0.1179 H         1 <0>         0.0721
     41 H11        -6.2400    4.0134    0.0316 H         1 <0>         0.0972
     42 H12        -4.3104    5.2117    1.2731 H         1 <0>         0.0795
     43 H13        -5.8656    5.1002    2.1339 H         1 <0>         0.0715
     44 H14        -3.1602    6.4117    3.5029 H         1 <0>         0.1191
     45 H15        -7.8955   -0.1205   -0.0056 H         1 <0>         0.0773
     46 H16        -8.9609   -0.9177    1.1727 H         1 <0>         0.0857
     47 H17       -10.1776    0.2841   -0.8786 H         1 <0>         0.1052
     48 H18       -11.4026    2.0089    0.0421 H         1 <0>         0.1051
     49 H19        -9.7565    3.2395    1.7476 H         1 <0>         0.1004
     50 H20       -11.1688    2.4378    2.4701 H         1 <0>         0.0702
     51 H21       -10.5964    2.4582    4.7604 H         1 <0>         0.4038
     52 H22        -8.4576    2.7001    6.5890 H         1 <0>         0.0704
     53 H23        -8.5979    4.2268    5.6848 H         1 <0>         0.0768
     54 H24        -8.7320    4.4547    8.2596 H         1 <0>         0.0818
     55 H25        -9.9739    5.6929    7.8743 H         1 <0>         0.0874
     56 H26       -10.1274    4.2741   10.2137 H         1 <0>         0.0861
     57 H27       -11.6214    4.6438    9.2865 H         1 <0>         0.0808
     58 H28        -9.9292    2.0851    9.2445 H         1 <0>         0.0612
     59 H29       -11.7073    2.2360    9.3799 H         1 <0>         0.0878
@<TRIPOS>BOND
     1    1    2 ar
     2    1   35 1
     3    1   14 ar
     4    2    3 ar
     5    2   36 1
     6    3    4 ar
     7    3   37 1
     8    4    5 1
     9    4   13 ar
    10    5    7 1
    11    5    6 1
    12    6   12 2
    13    6    8 1
    14    8    9 1
    15    8   38 1
    16    8   39 1
    17    9   10 1
    18    9   15 am
    19   10   11 1
    20   10   40 1
    21   10   41 1
    22   11   42 1
    23   11   43 1
    24   11   12 1
    25   12   13 1
    26   13   14 ar
    27   14   44 1
    28   15   16 2
    29   15   17 1
    30   17   18 1
    31   17   23 1
    32   17   19 1
    33   19   20 1
    34   19   45 1
    35   19   46 1
    36   20   21 2
    37   20   47 1
    38   21   22 1
    39   21   48 1
    40   22   23 1
    41   22   49 1
    42   22   50 1
    43   23   24 1
    44   23   25 1
    45   25   26 2
    46   25   27 am
    47   27   28 1
    48   27   51 1
    49   28   29 1
    50   28   52 1
    51   28   53 1
    52   29   30 1
    53   29   34 1
    54   29   31 1
    55   31   32 1
    56   31   54 1
    57   31   55 1
    58   32   33 1
    59   32   56 1
    60   32   57 1
    61   33   34 1
    62   33   58 1
    63   33   59 1
@<TRIPOS>MOLECULE
ZINC56373095
   52    54     0     0     0
SMALL
USER_CHARGES

@<TRIPOS>ATOM
      1 C1          0.5794   -2.8407    2.4377 C.3       1 <0>        -0.1162
      2 C2          0.2853   -2.0873    1.1661 C.ar      1 <0>        -0.0948
      3 C3          0.3742   -2.7290   -0.0540 C.ar      1 <0>        -0.1147
      4 C4          0.1046   -2.0382   -1.2210 C.ar      1 <0>        -0.1164
      5 C5         -0.2545   -0.7040   -1.1701 C.ar      1 <0>        -0.1146
      6 C6         -0.3448   -0.0577    0.0475 C.ar      1 <0>        -0.1025
      7 C7         -0.0803   -0.7501    1.2202 C.ar      1 <0>         0.0916
      8 O1         -0.1743   -0.1182    2.4197 O.3       1 <0>        -0.3229
      9 C8         -1.4760   -0.0204    3.0013 C.3       1 <0>         0.0990
     10 C9         -1.7784   -1.2957    3.7915 C.3       1 <0>        -0.1632
     11 C10        -3.1877   -1.2019    4.3846 C.3       1 <0>         0.1330
     12 N1         -3.2880    0.0342    5.1724 N.am      1 <0>        -0.6201
     13 C11        -2.9322    1.3091    4.5347 C.3       1 <0>         0.1113
     14 C12        -1.5257    1.1873    3.9399 C.3       1 <0>        -0.1307
     15 C13        -3.6991   -0.0006    6.4555 C.2       1 <0>         0.7162
     16 O2         -3.8975   -1.0687    7.0015 O.2       1 <0>        -0.5831
     17 N2         -3.8901    1.1485    7.1333 N.am      1 <0>        -0.5393
     18 N3         -4.2114    1.1126    8.4965 N.am      1 <0>        -0.5029
     19 C14        -4.5017    2.2546    9.1508 C.2       1 <0>         0.5653
     20 O3         -4.4848    3.3158    8.5580 O.2       1 <0>        -0.5342
     21 C15        -4.8405    2.2167   10.5881 C.ar      1 <0>        -0.1419
     22 C16        -4.8550    0.9996   11.2728 C.ar      1 <0>        -0.0545
     23 C17        -5.1713    0.9700   12.6140 C.ar      1 <0>        -0.1586
     24 C18        -5.4752    2.1456   13.2834 C.ar      1 <0>         0.1327
     25 C19        -5.4627    3.3567   12.6083 C.ar      1 <0>        -0.1599
     26 C20        -5.1417    3.3984   11.2685 C.ar      1 <0>        -0.0229
     27 F1         -5.7850    2.1110   14.5979 F         1 <0>        -0.1301
     28 C21        -0.7362    1.3966    0.1022 C.3       1 <0>        -0.1137
     29 H1         -0.3397   -3.2889    2.8153 H         1 <0>         0.0716
     30 H2          1.3092   -3.6246    2.2351 H         1 <0>         0.0668
     31 H3          0.9813   -2.1538    3.1824 H         1 <0>         0.0739
     32 H4          0.6548   -3.7710   -0.0964 H         1 <0>         0.1263
     33 H5          0.1750   -2.5416   -2.1739 H         1 <0>         0.1254
     34 H6         -0.4642   -0.1665   -2.0831 H         1 <0>         0.1257
     35 H7         -2.2180    0.1021    2.2122 H         1 <0>         0.0664
     36 H8         -1.7198   -2.1578    3.1272 H         1 <0>         0.0863
     37 H9         -1.0515   -1.4059    4.5963 H         1 <0>         0.0807
     38 H10        -3.9224   -1.1829    3.5797 H         1 <0>         0.0721
     39 H11        -3.3709   -2.0618    5.0290 H         1 <0>         0.1031
     40 H12        -3.6460    1.5330    3.7420 H         1 <0>         0.0806
     41 H13        -2.9467    2.1062    5.2781 H         1 <0>         0.0857
     42 H14        -0.8012    1.0537    4.7433 H         1 <0>         0.0814
     43 H15        -1.2873    2.0923    3.3812 H         1 <0>         0.0893
     44 H16        -3.8052    2.0004    6.6773 H         1 <0>         0.4289
     45 H17        -4.2249    0.2658    8.9694 H         1 <0>         0.4322
     46 H18        -4.6192    0.0832   10.7522 H         1 <0>         0.1386
     47 H19        -5.1829    0.0293   13.1445 H         1 <0>         0.1468
     48 H20        -5.7008    4.2694   13.1343 H         1 <0>         0.1476
     49 H21        -5.1279    4.3428   10.7447 H         1 <0>         0.1505
     50 H22        -1.8094    1.4777    0.2742 H         1 <0>         0.0674
     51 H23        -0.1999    1.8868    0.9147 H         1 <0>         0.0728
     52 H24        -0.4823    1.8769   -0.8427 H         1 <0>         0.0683
@<TRIPOS>BOND
     1    1    2 1
     2    1   29 1
     3    1   30 1
     4    1   31 1
     5    2    7 ar
     6    2    3 ar
     7    3    4 ar
     8    3   32 1
     9    4    5 ar
    10    4   33 1
    11    5    6 ar
    12    5   34 1
    13    6    7 ar
    14    6   28 1
    15    7    8 1
    16    8    9 1
    17    9   14 1
    18    9   10 1
    19    9   35 1
    20   10   11 1
    21   10   36 1
    22   10   37 1
    23   11   12 1
    24   11   38 1
    25   11   39 1
    26   12   13 1
    27   12   15 am
    28   13   14 1
    29   13   40 1
    30   13   41 1
    31   14   42 1
    32   14   43 1
    33   15   16 2
    34   15   17 am
    35   17   18 1
    36   17   44 1
    37   18   19 am
    38   18   45 1
    39   19   20 2
    40   19   21 1
    41   21   26 ar
    42   21   22 ar
    43   22   23 ar
    44   22   46 1
    45   23   24 ar
    46   23   47 1
    47   24   25 ar
    48   24   27 1
    49   25   26 ar
    50   25   48 1
    51   26   49 1
    52   28   50 1
    53   28   51 1
    54   28   52 1
@<TRIPOS>MOLECULE
ZINC09012023
   47    49     0     0     0
SMALL
USER_CHARGES

@<TRIPOS>ATOM
      1 C1         -0.0414    1.5024    0.0137 C.3       1 <0>        -0.1169
      2 C2         -0.0148   -0.0043    0.0045 C.ar      1 <0>        -0.0960
      3 C3         -0.7519   -0.7018   -0.9353 C.ar      1 <0>        -0.0966
      4 C4         -0.7297   -2.0824   -0.9463 C.ar      1 <0>        -0.1189
      5 C5          0.0343   -2.7707   -0.0127 C.ar      1 <0>         0.1381
      6 C6          0.7735   -2.0676    0.9292 C.ar      1 <0>        -0.1376
      7 C7          0.7508   -0.6864    0.9319 C.ar      1 <0>        -0.0675
      8 C8          1.5573    0.0776    1.9502 C.3       1 <0>        -0.1173
      9 N1          0.0586   -4.1697   -0.0209 N.am      1 <0>        -0.6603
     10 C9         -0.0404   -4.8386   -1.1868 C.2       1 <0>         0.5403
     11 O1         -0.0541   -4.2300   -2.2358 O.2       1 <0>        -0.4908
     12 C10        -0.1340   -6.3427   -1.1871 C.3       1 <0>        -0.1132
     13 H1          0.3208   -6.7404   -0.2798 H         1 <0>         0.1282
     14 C11         0.5836   -6.9057   -2.4154 C.3       1 <0>        -0.1224
     15 C12         0.3510   -8.3668   -2.5907 C.2       1 <0>         0.5251
     16 N2         -0.6907   -9.0898   -2.2080 N.am      1 <0>        -0.6315
     17 C13        -1.7250   -8.6108   -1.4261 C.2       1 <0>         0.3798
     18 N3         -2.5594   -9.4280   -0.8171 N.2       1 <0>        -0.3560
     19 N4         -3.5156   -8.9522   -0.0936 N.2       1 <0>        -0.3517
     20 C14        -4.3425   -9.7621    0.5099 C.2       1 <0>         0.2112
     21 C15        -5.4333   -9.2194    1.3352 C.ar      1 <0>        -0.0782
     22 C16        -5.5908   -7.8364    1.4708 C.ar      1 <0>        -0.0680
     23 C17        -6.6153   -7.3356    2.2460 C.ar      1 <0>        -0.1298
     24 C18        -7.4862   -8.1976    2.8892 C.ar      1 <0>        -0.0957
     25 C19        -7.3370   -9.5675    2.7600 C.ar      1 <0>        -0.1279
     26 C20        -6.3213  -10.0838    1.9834 C.ar      1 <0>        -0.0816
     27 S1         -1.8824   -6.8518   -1.2748 S.3       1 <0>        -0.0399
     28 O2          1.2324   -8.9749   -3.1596 O.2       1 <0>        -0.5047
     29 H2          0.7511    1.8837   -0.6304 H         1 <0>         0.0711
     30 H3         -1.0069    1.8510   -0.3530 H         1 <0>         0.0671
     31 H4          0.1125    1.8623    1.0310 H         1 <0>         0.0691
     32 H5         -1.3458   -0.1660   -1.6610 H         1 <0>         0.1275
     33 H6         -1.3060   -2.6265   -1.6800 H         1 <0>         0.1342
     34 H7          1.3685   -2.5999    1.6565 H         1 <0>         0.1264
     35 H8          0.9529    0.2438    2.8419 H         1 <0>         0.0728
     36 H9          2.4455   -0.4961    2.2149 H         1 <0>         0.0668
     37 H10         1.8569    1.0378    1.5301 H         1 <0>         0.0715
     38 H11         0.1466   -4.6582    0.8125 H         1 <0>         0.4145
     39 H12         0.2270   -6.3828   -3.3028 H         1 <0>         0.1402
     40 H13         1.6540   -6.7289   -2.3105 H         1 <0>         0.1311
     41 H14        -4.2262  -10.8306    0.4035 H         1 <0>         0.1181
     42 H15        -4.9115   -7.1624    0.9700 H         1 <0>         0.1355
     43 H16        -6.7382   -6.2678    2.3517 H         1 <0>         0.1273
     44 H17        -8.2863   -7.7993    3.4955 H         1 <0>         0.1258
     45 H18        -8.0207  -10.2338    3.2651 H         1 <0>         0.1286
     46 H19        -6.2088  -11.1529    1.8798 H         1 <0>         0.1300
     47 H20        -0.7305  -10.0154   -2.4953 H         1 <0>         0.4220
@<TRIPOS>BOND
     1    1    2 1
     2    1   29 1
     3    1   30 1
     4    1   31 1
     5    2    7 ar
     6    2    3 ar
     7    3    4 ar
     8    3   32 1
     9    4    5 ar
    10    4   33 1
    11    5    6 ar
    12    5    9 1
    13    6    7 ar
    14    6   34 1
    15    7    8 1
    16    8   35 1
    17    8   36 1
    18    8   37 1
    19    9   10 am
    20    9   38 1
    21   10   11 2
    22   10   12 1
    23   12   13 1
    24   12   27 1
    25   12   14 1
    26   14   15 1
    27   14   39 1
    28   14   40 1
    29   15   16 am
    30   15   28 2
    31   16   17 1
    32   16   47 1
    33   17   18 2
    34   17   27 1
    35   18   19 1
    36   19   20 2
    37   20   21 1
    38   20   41 1
    39   21   26 ar
    40   21   22 ar
    41   22   23 ar
    42   22   42 1
    43   23   24 ar
    44   23   43 1
    45   24   25 ar
    46   24   44 1
    47   25   26 ar
    48   25   45 1
    49   26   46 1
@<TRIPOS>MOLECULE
ZINC65818337
   58    61     0     0     0
SMALL
USER_CHARGES

@<TRIPOS>ATOM
      1 C1         -0.4471    1.4376   -0.1910 C.3       1 <0>        -0.1570
      2 C2          0.0042   -0.0110    0.0059 C.3       1 <0>         0.1232
      3 C3          0.5976   -0.5312   -1.2780 C.2       1 <0>         0.5160
      4 O1         -0.0900   -1.1635   -2.0515 O.2       1 <0>        -0.5353
      5 N1          1.8925   -0.2937   -1.5667 N.am      1 <0>        -0.6058
      6 C4          2.7657    0.3765   -0.5936 C.3       1 <0>         0.0987
      7 C5          3.4262    1.5811   -1.2714 C.3       1 <0>        -0.1262
      8 C6          4.1412    1.1174   -2.5426 C.3       1 <0>        -0.0105
      9 C7          3.1218    0.5162   -3.5128 C.3       1 <0>        -0.1244
     10 C8          2.4593   -0.7055   -2.8582 C.3       1 <0>         0.1103
     11 C9          4.8209    2.2942   -3.1940 C.2       1 <0>        -0.1560
     12 C10         4.2291    3.4140   -3.6384 C.2       1 <0>         0.0680
     13 N2          5.1672    4.2582   -4.1695 N.pl3     1 <0>        -0.5808
     14 H1          4.9783    5.1289   -4.5531 H         1 <0>         0.4209
     15 C11         6.4157    3.6911   -4.0789 C.ar      1 <0>         0.2858
     16 C12         6.2537    2.4377   -3.4575 C.ar      1 <0>        -0.1456
     17 C13         7.3730    1.6343   -3.2295 C.ar      1 <0>        -0.0285
     18 C14         8.6079    2.1127   -3.6258 C.ar      1 <0>        -0.2011
     19 C15         8.6940    3.3580   -4.2287 C.ar      1 <0>         0.1390
     20 N3          7.6254    4.0963   -4.4414 N.ar      1 <0>        -0.5006
     21 N4         -1.1479   -0.8349    0.3803 N.am      1 <0>        -0.7172
     22 C16        -1.5287   -0.9141    1.6707 C.2       1 <0>         0.5221
     23 O2         -0.9176   -0.3034    2.5219 O.2       1 <0>        -0.5372
     24 C17        -2.7138   -1.7616    2.0559 C.3       1 <0>        -0.1046
     25 C18        -3.9620   -1.2516    1.3328 C.3       1 <0>        -0.1110
     26 C19        -5.1652   -2.1120    1.7239 C.3       1 <0>        -0.1185
     27 C20        -5.3820   -2.0284    3.2361 C.3       1 <0>        -0.1231
     28 C21        -4.1338   -2.5384    3.9592 C.3       1 <0>        -0.1208
     29 C22        -2.9306   -1.6780    3.5682 C.3       1 <0>        -0.0990
     30 H2          0.4225    2.0662   -0.3826 H         1 <0>         0.0718
     31 H3         -1.1297    1.4934   -1.0390 H         1 <0>         0.0655
     32 H4         -0.9557    1.7851    0.7083 H         1 <0>         0.0762
     33 H5          0.7537   -0.0539    0.7961 H         1 <0>         0.1108
     34 H6          2.1734    0.7150    0.2565 H         1 <0>         0.0908
     35 H7          3.5339   -0.3178   -0.2530 H         1 <0>         0.0767
     36 H8          2.6640    2.3161   -1.5302 H         1 <0>         0.0702
     37 H9          4.1493    2.0304   -0.5906 H         1 <0>         0.0816
     38 H10         4.8863    0.3644   -2.2860 H         1 <0>         0.0809
     39 H11         2.3625    1.2612   -3.7505 H         1 <0>         0.0687
     40 H12         3.6282    0.2075   -4.4274 H         1 <0>         0.0792
     41 H13         3.2029   -1.4862   -2.6986 H         1 <0>         0.0716
     42 H14         1.6646   -1.0812   -3.5028 H         1 <0>         0.0952
     43 H15         3.1700    3.6186   -3.5854 H         1 <0>         0.1746
     44 H16         7.2767    0.6678   -2.7571 H         1 <0>         0.1332
     45 H17         9.4978    1.5217   -3.4668 H         1 <0>         0.1381
     46 H18         9.6605    3.7285   -4.5371 H         1 <0>         0.1612
     47 H19        -1.6366   -1.3233   -0.3005 H         1 <0>         0.4104
     48 H20        -2.5273   -2.7974    1.7723 H         1 <0>         0.0986
     49 H21        -4.1485   -0.2158    1.6164 H         1 <0>         0.0688
     50 H22        -3.8076   -1.3112    0.2554 H         1 <0>         0.0674
     51 H23        -6.0544   -1.7488    1.2087 H         1 <0>         0.0668
     52 H24        -4.9787   -3.1478    1.4403 H         1 <0>         0.0650
     53 H25        -5.5685   -0.9926    3.5197 H         1 <0>         0.0630
     54 H26        -6.2392   -2.6414    3.5147 H         1 <0>         0.0636
     55 H27        -4.2882   -2.4788    5.0366 H         1 <0>         0.0665
     56 H28        -3.9473   -3.5742    3.6756 H         1 <0>         0.0628
     57 H29        -2.0414   -2.0413    4.0833 H         1 <0>         0.0695
     58 H30        -3.1171   -0.6422    3.8518 H         1 <0>         0.0704
@<TRIPOS>BOND
     1    1    2 1
     2    1   30 1
     3    1   31 1
     4    1   32 1
     5    2    3 1
     6    2   21 1
     7    2   33 1
     8    3    4 2
     9    3    5 am
    10    5   10 1
    11    5    6 1
    12    6    7 1
    13    6   34 1
    14    6   35 1
    15    7    8 1
    16    7   36 1
    17    7   37 1
    18    8    9 1
    19    8   11 1
    20    8   38 1
    21    9   10 1
    22    9   39 1
    23    9   40 1
    24   10   41 1
    25   10   42 1
    26   11   16 1
    27   11   12 2
    28   12   13 1
    29   12   43 1
    30   13   14 1
    31   13   15 1
    32   15   20 ar
    33   15   16 ar
    34   16   17 ar
    35   17   18 ar
    36   17   44 1
    37   18   19 ar
    38   18   45 1
    39   19   20 ar
    40   19   46 1
    41   21   22 am
    42   21   47 1
    43   22   23 2
    44   22   24 1
    45   24   29 1
    46   24   25 1
    47   24   48 1
    48   25   26 1
    49   25   49 1
    50   25   50 1
    51   26   27 1
    52   26   51 1
    53   26   52 1
    54   27   28 1
    55   27   53 1
    56   27   54 1
    57   28   29 1
    58   28   55 1
    59   28   56 1
    60   29   57 1
    61   29   58 1
@<TRIPOS>MOLECULE
ZINC19641848
   62    65     0     0     0
SMALL
USER_CHARGES
(1S,6R)-6-[[(6S)-6-ethyl-3-(piperidine-1-carbonyl)-4,5,6,7-tetrahydrobenzothiophen-2-yl]carbamoyl]cyclohex-3-ene-1-carboxylic acid
@<TRIPOS>ATOM
      1 C1          6.0256    6.7535   -0.8729 C.3       1 <0>        -0.1563
      2 C2          6.4434    5.3887   -0.3220 C.3       1 <0>        -0.1186
      3 C3          5.4041    4.3385   -0.7191 C.3       1 <0>        -0.0821
      4 H1          5.2841    4.3498   -1.8125 H         1 <0>         0.0745
      5 C4          5.8726    2.9540   -0.2620 C.3       1 <0>        -0.1110
      6 C5          4.9717    1.8746   -0.8645 C.3       1 <0>        -0.0585
      7 C6          3.5199    2.2191   -0.5561 C.2       1 <0>        -0.0541
      8 C7          3.1640    3.4703   -0.1921 C.2       1 <0>        -0.2345
      9 S1          1.4123    3.3897    0.0512 S.3       1 <0>         0.2027
     10 C8          1.1556    1.7160   -0.3158 C.2       1 <0>         0.1188
     11 C9          2.4296    1.2611   -0.6249 C.2       1 <0>        -0.2522
     12 C10         2.6668   -0.1345   -1.0070 C.2       1 <0>         0.5907
     13 O1          2.6088   -0.4632   -2.1775 O.2       1 <0>        -0.5500
     14 N1          2.9490   -1.0533   -0.0622 N.am      1 <0>        -0.5967
     15 C11         3.0284   -0.6705    1.3541 C.3       1 <0>         0.1172
     16 C12         2.0928   -1.5841    2.1603 C.3       1 <0>        -0.1540
     17 C13         2.4530   -3.0455    1.8833 C.3       1 <0>        -0.1103
     18 C14         2.2570   -3.3480    0.3960 C.3       1 <0>        -0.1333
     19 C15         3.1890   -2.4555   -0.4296 C.3       1 <0>         0.1114
     20 N2         -0.0349    1.0050   -0.3085 N.am      1 <0>        -0.6115
     21 C16        -1.1873    1.6238    0.0165 C.2       1 <0>         0.5341
     22 O2         -1.1823    2.8012    0.3074 O.2       1 <0>        -0.5099
     23 C17        -2.4820    0.8526    0.0185 C.3       1 <0>        -0.0795
     24 H2         -2.3381   -0.0575   -0.5823 H         1 <0>         0.0916
     25 C18        -3.5952    1.7149   -0.5807 C.3       1 <0>        -0.0716
     26 C19        -3.9416    2.8355    0.3555 C.2       1 <0>        -0.1604
     27 C20        -3.6184    2.8597    1.6086 C.2       1 <0>        -0.1242
     28 C21        -2.8430    1.7755    2.2981 C.3       1 <0>        -0.0718
     29 C22        -2.8646    0.4909    1.4592 C.3       1 <0>        -0.1196
     30 H3         -3.8599    0.0239    1.4938 H         1 <0>         0.0855
     31 C23        -1.8741   -0.5010    2.0125 C.2       1 <0>         0.4684
     32 O3         -0.9545   -0.8825    1.3279 O.co2     1 <0>        -0.6349
     33 O4         -2.0135   -0.9607    3.2659 O.co2     1 <0>        -0.7579
     34 C24         4.0647    4.6569   -0.0389 C.3       1 <0>        -0.0220
     35 H4          6.7729    7.5085   -0.5874 H         1 <0>         0.0514
     36 H5          5.0457    7.0321   -0.4578 H         1 <0>         0.0577
     37 H6          5.9578    6.7011   -1.9696 H         1 <0>         0.0536
     38 H7          7.4233    5.1101   -0.7371 H         1 <0>         0.0620
     39 H8          6.5112    5.4411    0.7747 H         1 <0>         0.0630
     40 H9          6.9082    2.7892   -0.5941 H         1 <0>         0.0651
     41 H10         5.8257    2.8948    0.8354 H         1 <0>         0.0658
     42 H11         5.1228    1.8367   -1.9534 H         1 <0>         0.0741
     43 H12         5.2248    0.8985   -0.4251 H         1 <0>         0.0691
     44 H13         4.0633   -0.7874    1.7080 H         1 <0>         0.0564
     45 H14         2.7181    0.3786    1.4683 H         1 <0>         0.0820
     46 H15         2.2091   -1.3727    3.2335 H         1 <0>         0.0642
     47 H16         1.0509   -1.3980    1.8608 H         1 <0>         0.1178
     48 H17         3.5035   -3.2225    2.1575 H         1 <0>         0.0505
     49 H18         1.8027   -3.7027    2.4793 H         1 <0>         0.0636
     50 H19         2.4927   -4.4049    0.2026 H         1 <0>         0.0669
     51 H20         1.2122   -3.1481    0.1157 H         1 <0>         0.0752
     52 H21         2.9848   -2.5938   -1.5016 H         1 <0>         0.0886
     53 H22         4.2370   -2.7154   -0.2195 H         1 <0>         0.0607
     54 H23        -0.0387   -0.0640   -0.5679 H         1 <0>         0.4551
     55 H24        -3.2568    2.1369   -1.5385 H         1 <0>         0.0672
     56 H25        -4.4888    1.0957   -0.7481 H         1 <0>         0.0791
     57 H26        -4.5053    3.6719   -0.0834 H         1 <0>         0.0972
     58 H27        -3.9144    3.7130    2.2366 H         1 <0>         0.0969
     59 H28        -1.8004    2.0993    2.4328 H         1 <0>         0.0709
     60 H29        -3.2932    1.5708    3.2806 H         1 <0>         0.0741
     61 H30         4.2355    4.8650    1.0277 H         1 <0>         0.0765
     62 H31         3.6113    5.5381   -0.5164 H         1 <0>         0.0753
@<TRIPOS>BOND
     1    1    2 1
     2    1   35 1
     3    1   36 1
     4    1   37 1
     5    2    3 1
     6    2   38 1
     7    2   39 1
     8    3    4 1
     9    3   34 1
    10    3    5 1
    11    5    6 1
    12    5   40 1
    13    5   41 1
    14    6    7 1
    15    6   42 1
    16    6   43 1
    17    7   11 1
    18    7    8 2
    19    8    9 1
    20    8   34 1
    21    9   10 1
    22   10   11 2
    23   10   20 1
    24   11   12 1
    25   12   13 2
    26   12   14 am
    27   14   19 1
    28   14   15 1
    29   15   16 1
    30   15   44 1
    31   15   45 1
    32   16   17 1
    33   16   46 1
    34   16   47 1
    35   17   18 1
    36   17   48 1
    37   17   49 1
    38   18   19 1
    39   18   50 1
    40   18   51 1
    41   19   52 1
    42   19   53 1
    43   20   21 am
    44   20   54 1
    45   21   22 2
    46   21   23 1
    47   23   24 1
    48   23   29 1
    49   23   25 1
    50   25   26 1
    51   25   55 1
    52   25   56 1
    53   26   27 2
    54   26   57 1
    55   27   28 1
    56   27   58 1
    57   28   29 1
    58   28   59 1
    59   28   60 1
    60   29   30 1
    61   29   31 1
    62   31   32 2
    63   31   33 1
    64   34   61 1
    65   34   62 1
@<TRIPOS>MOLECULE
ZINC00939391
   40    43     0     0     0
SMALL
USER_CHARGES

@<TRIPOS>ATOM
      1 C1         -0.2427    1.2976   -0.0089 C.ar      1 <0>        -0.1580
      2 C2          0.8249    1.9051   -0.6514 C.ar      1 <0>        -0.1069
      3 C3          2.0661    1.3022   -0.6675 C.ar      1 <0>        -0.1514
      4 C4          2.2539    0.0786   -0.0384 C.ar      1 <0>         0.1748
      5 C5          1.1748   -0.5400    0.6136 C.ar      1 <0>        -0.1678
      6 C6         -0.0767    0.0843    0.6212 C.ar      1 <0>        -0.0657
      7 C7          1.3596   -1.8369    1.2840 C.2       1 <0>         0.5270
      8 O1          0.3976   -2.4184    1.7669 O.co2     1 <0>        -0.6762
      9 O2          2.4752   -2.3336    1.3583 O.co2     1 <0>        -0.6895
     10 N1          3.5045   -0.5315   -0.0542 N.am      1 <0>        -0.6298
     11 C8          4.6168    0.2153   -0.2008 C.2       1 <0>         0.5253
     12 O3          4.5370    1.4253   -0.2169 O.2       1 <0>        -0.5270
     13 C9          5.9598   -0.4532   -0.3445 C.3       1 <0>        -0.1490
     14 S1          7.2485    0.8108   -0.5227 S.3       1 <0>         0.0614
     15 C10         8.7379   -0.1178   -0.6782 C.ar      1 <0>         0.1964
     16 C11         9.9883    0.5428   -0.8332 C.ar      1 <0>        -0.1625
     17 C12        10.2585    1.9887   -0.8890 C.2       1 <0>        -0.1035
     18 C13        11.5393    2.3611   -1.0434 C.2       1 <0>        -0.1692
     19 S2         12.4577    0.8401   -1.1203 S.3       1 <0>         0.1452
     20 C14        11.1100   -0.2975   -0.9471 C.ar      1 <0>         0.1294
     21 N2         10.9936   -1.6117   -0.9115 N.ar      1 <0>        -0.4906
     22 C15         9.8071   -2.1697   -0.7661 C.ar      1 <0>         0.3340
     23 N3          8.7113   -1.4417   -0.6472 N.ar      1 <0>        -0.5373
     24 C16        11.6944    3.8576   -1.0923 C.3       1 <0>        -0.0346
     25 C17        10.2714    4.3855   -1.3784 C.3       1 <0>        -0.1150
     26 C18         9.3967    3.2520   -0.8078 C.3       1 <0>        -0.0688
     27 H1         -1.2087    1.7805    0.0014 H         1 <0>         0.1149
     28 H2          0.6842    2.8564   -1.1429 H         1 <0>         0.1160
     29 H3          2.8925    1.7825   -1.1705 H         1 <0>         0.1389
     30 H4         -0.9118   -0.3844    1.1206 H         1 <0>         0.1291
     31 H5          3.5757   -1.4943    0.0402 H         1 <0>         0.4300
     32 H6          6.1621   -1.0562    0.5407 H         1 <0>         0.1293
     33 H7          5.9543   -1.0935   -1.2267 H         1 <0>         0.1260
     34 H8          9.7304   -3.2466   -0.7390 H         1 <0>         0.2113
     35 H9         12.0545    4.2342   -0.1349 H         1 <0>         0.0902
     36 H10        12.3746    4.1435   -1.8946 H         1 <0>         0.0833
     37 H11        10.0893    5.3221   -0.8514 H         1 <0>         0.0878
     38 H12        10.1071    4.5039   -2.4495 H         1 <0>         0.0790
     39 H13         8.4951    3.1327   -1.4086 H         1 <0>         0.0848
     40 H14         9.1346    3.4636    0.2289 H         1 <0>         0.0886
@<TRIPOS>BOND
     1    1    6 ar
     2    1    2 ar
     3    1   27 1
     4    2    3 ar
     5    2   28 1
     6    3    4 ar
     7    3   29 1
     8    4    5 ar
     9    4   10 1
    10    5    6 ar
    11    5    7 1
    12    6   30 1
    13    7    8 2
    14    7    9 1
    15   10   11 am
    16   10   31 1
    17   11   12 2
    18   11   13 1
    19   13   14 1
    20   13   32 1
    21   13   33 1
    22   14   15 1
    23   15   23 ar
    24   15   16 ar
    25   16   20 ar
    26   16   17 1
    27   17   26 1
    28   17   18 2
    29   18   19 1
    30   18   24 1
    31   19   20 1
    32   20   21 ar
    33   21   22 ar
    34   22   23 ar
    35   22   34 1
    36   24   25 1
    37   24   35 1
    38   24   36 1
    39   25   26 1
    40   25   37 1
    41   25   38 1
    42   26   39 1
    43   26   40 1
@<TRIPOS>MOLECULE
ZINC44687102
   53    55     0     0     0
SMALL
USER_CHARGES

@<TRIPOS>ATOM
      1 C1         -0.0184    1.5028    0.0103 C.3       1 <0>        -0.0702
      2 C2          0.0021   -0.0041    0.0020 C.2       1 <0>        -0.0290
      3 C3         -1.0808   -0.8064    0.0027 C.2       1 <0>        -0.1756
      4 C4         -0.6021   -2.1289   -0.0068 C.2       1 <0>        -0.1801
      5 C5          0.7452   -2.0645   -0.0137 C.2       1 <0>        -0.0191
      6 O1          1.1042   -0.7752   -0.0131 O.3       1 <0>        -0.1717
      7 C6          1.6458   -3.2755   -0.0279 C.3       1 <0>        -0.0238
      8 C7          0.8145   -4.4929   -0.4499 C.3       1 <0>        -0.0538
      9 C8         -0.4624   -4.5580    0.3926 C.3       1 <0>        -0.1175
     10 C9         -1.3965   -3.4088   -0.0077 C.3       1 <0>         0.2155
     11 H1         -1.7971   -3.5916   -1.0048 H         1 <0>         0.0983
     12 N1         -2.4956   -3.3081    0.9556 N.am      1 <0>        -0.7299
     13 C10        -3.6614   -2.7387    0.5907 C.2       1 <0>         0.5193
     14 O2         -3.8006   -2.3098   -0.5352 O.2       1 <0>        -0.5358
     15 C11        -4.7921   -2.6351    1.5816 C.3       1 <0>        -0.1276
     16 C12        -5.9907   -1.9536    0.9184 C.3       1 <0>        -0.0171
     17 C13        -7.1213   -1.8500    1.9093 C.ar      1 <0>        -0.3047
     18 C14        -8.0550   -2.8631    2.0247 C.ar      1 <0>         0.1772
     19 N2         -9.0366   -2.7418    2.9050 N.ar      1 <0>        -0.5861
     20 C15        -9.1331   -1.6653    3.6725 C.ar      1 <0>         0.3331
     21 N3         -8.2581   -0.6734    3.5908 N.ar      1 <0>        -0.6154
     22 C16        -7.2459   -0.7330    2.7341 C.ar      1 <0>         0.4501
     23 O3         -6.3494    0.2804    2.6582 O.3       1 <0>        -0.6939
     24 S1        -10.4573   -1.5502    4.8290 S.3       1 <0>        -0.0695
     25 C17       -10.1947    0.0516    5.6389 C.3       1 <0>        -0.1253
     26 C18        -7.9568   -4.0919    1.1577 C.3       1 <0>        -0.0953
     27 C19         0.4435   -4.3689   -1.9290 C.3       1 <0>        -0.1509
     28 C20         1.6325   -5.7680   -0.2350 C.3       1 <0>        -0.1397
     29 H2          1.0042    1.8801    0.0026 H         1 <0>         0.0714
     30 H3         -0.5455    1.8639   -0.8728 H         1 <0>         0.0837
     31 H4         -0.5286    1.8543    0.9071 H         1 <0>         0.0850
     32 H5         -2.1147   -0.4945    0.0092 H         1 <0>         0.1491
     33 H6          2.4573   -3.1210   -0.7390 H         1 <0>         0.0826
     34 H7          2.0565   -3.4391    0.9684 H         1 <0>         0.0848
     35 H8         -0.9635   -5.5106    0.2202 H         1 <0>         0.0780
     36 H9         -0.2065   -4.4676    1.4482 H         1 <0>         0.0724
     37 H10        -2.3843   -3.6511    1.8561 H         1 <0>         0.3986
     38 H11        -5.0786   -3.6336    1.9117 H         1 <0>         0.0830
     39 H12        -4.4694   -2.0471    2.4408 H         1 <0>         0.0924
     40 H13        -5.7041   -0.9551    0.5883 H         1 <0>         0.0726
     41 H14        -6.3133   -2.5416    0.0592 H         1 <0>         0.0588
     42 H15        -9.2206    0.0560    6.1281 H         1 <0>         0.0824
     43 H16       -10.2304    0.8459    4.8933 H         1 <0>         0.0826
     44 H17       -10.9752    0.2154    6.3819 H         1 <0>         0.0950
     45 H18        -7.3500   -4.8444    1.6614 H         1 <0>         0.0667
     46 H19        -8.9553   -4.4907    0.9784 H         1 <0>         0.0668
     47 H20        -7.4942   -3.8293    0.2064 H         1 <0>         0.0711
     48 H21         1.3524   -4.3238   -2.5290 H         1 <0>         0.0568
     49 H22        -0.1474   -5.2342   -2.2292 H         1 <0>         0.0599
     50 H23        -0.1387   -3.4603   -2.0826 H         1 <0>         0.0648
     51 H24         1.8975   -5.8564    0.8185 H         1 <0>         0.0583
     52 H25         1.0417   -6.6335   -0.5350 H         1 <0>         0.0619
     53 H26         2.5409   -5.7223   -0.8356 H         1 <0>         0.0594
@<TRIPOS>BOND
     1    1    2 1
     2    1   29 1
     3    1   30 1
     4    1   31 1
     5    2    6 1
     6    2    3 2
     7    3    4 1
     8    3   32 1
     9    4   10 1
    10    4    5 2
    11    5    6 1
    12    5    7 1
    13    7    8 1
    14    7   33 1
    15    7   34 1
    16    8    9 1
    17    8   27 1
    18    8   28 1
    19    9   10 1
    20    9   35 1
    21    9   36 1
    22   10   11 1
    23   10   12 1
    24   12   13 am
    25   12   37 1
    26   13   14 2
    27   13   15 1
    28   15   16 1
    29   15   38 1
    30   15   39 1
    31   16   40 1
    32   16   41 1
    33   16   17 1
    34   17   22 ar
    35   17   18 ar
    36   18   19 ar
    37   18   26 1
    38   19   20 ar
    39   20   24 1
    40   20   21 ar
    41   21   22 ar
    42   22   23 1
    43   24   25 1
    44   25   42 1
    45   25   43 1
    46   25   44 1
    47   26   45 1
    48   26   46 1
    49   26   47 1
    50   27   48 1
    51   27   49 1
    52   27   50 1
    53   28   51 1
    54   28   52 1
    55   28   53 1
@<TRIPOS>MOLECULE
ZINC57112639
   49    51     0     0     0
SMALL
USER_CHARGES

@<TRIPOS>ATOM
      1 C1         -1.4155   -2.9321   -5.7566 C.3       1 <0>        -0.0748
      2 C2         -1.9549   -1.6657   -6.3700 C.2       1 <0>         0.1145
      3 C3         -1.6327   -0.4468   -5.8742 C.2       1 <0>        -0.2751
      4 S1         -2.5447    0.6157   -6.9818 S.3       1 <0>         0.0063
      5 C4         -3.2293   -0.5833   -7.9442 C.2       1 <0>         0.2799
      6 S2         -4.3078   -0.3962   -9.3250 S.3       1 <0>        -0.7501
      7 N1         -2.7584   -1.6948   -7.4183 N.2       1 <0>        -0.5746
      8 C5         -0.7484   -0.0869   -4.7083 C.3       1 <0>        -0.0213
      9 C6          0.6691    0.0898   -5.1887 C.2       1 <0>         0.5048
     10 O1          0.9349   -0.0616   -6.3623 O.2       1 <0>        -0.4889
     11 N2          1.6412    0.4162   -4.3141 N.am      1 <0>        -0.6833
     12 C7          2.9720    0.4855   -4.7411 C.ar      1 <0>         0.1496
     13 C8          3.9972    0.0936   -3.8900 C.ar      1 <0>        -0.1427
     14 C9          5.3095    0.1633   -4.3144 C.ar      1 <0>        -0.1070
     15 C10         5.6033    0.6232   -5.5852 C.ar      1 <0>        -0.1186
     16 C11         4.5851    1.0146   -6.4346 C.ar      1 <0>        -0.0733
     17 C12         3.2699    0.9410   -6.0185 C.ar      1 <0>        -0.0972
     18 C13         4.9098    1.5156   -7.8183 C.3       1 <0>         0.1051
     19 O2          4.9259    0.4164   -8.7313 O.3       1 <0>        -0.3687
     20 C14         5.2257    0.7846  -10.0791 C.3       1 <0>         0.0689
     21 C15         5.2157   -0.4640  -10.9632 C.3       1 <0>         0.0925
     22 H1          5.9011   -1.2056  -10.5527 H         1 <0>         0.0638
     23 C16         5.6576   -0.0897  -12.3803 C.3       1 <0>        -0.1488
     24 C17         5.5874   -1.3321  -13.2736 C.3       1 <0>        -0.1197
     25 C18         4.1624   -1.8930  -13.2381 C.3       1 <0>        -0.1588
     26 C19         3.7783   -2.1977  -11.7878 C.3       1 <0>         0.0594
     27 O3          3.8948   -1.0077  -11.0053 O.3       1 <0>        -0.3634
     28 H2         -0.4714   -3.1938   -6.2344 H         1 <0>         0.0652
     29 H3         -1.2525   -2.7784   -4.6899 H         1 <0>         0.0601
     30 H4         -2.1325   -3.7402   -5.9019 H         1 <0>         0.0661
     31 H5         -1.0987    0.8428   -4.2600 H         1 <0>         0.0989
     32 H6         -0.7836   -0.8841   -3.9658 H         1 <0>         0.1048
     33 H7          1.4184    0.6030   -3.3887 H         1 <0>         0.4088
     34 H8          3.7684   -0.2650   -2.8973 H         1 <0>         0.1247
     35 H9          6.1072   -0.1414   -3.6531 H         1 <0>         0.1249
     36 H10         6.6305    0.6771   -5.9146 H         1 <0>         0.1205
     37 H11         2.4746    1.2419   -6.6843 H         1 <0>         0.1419
     38 H12         4.1540    2.2362   -8.1305 H         1 <0>         0.0587
     39 H13         5.8883    1.9957   -7.8105 H         1 <0>         0.0559
     40 H14         4.4764    1.4901  -10.4382 H         1 <0>         0.0590
     41 H15         6.2107    1.2497  -10.1182 H         1 <0>         0.0615
     42 H16         4.9968    0.6814  -12.7762 H         1 <0>         0.0745
     43 H17         6.6813    0.2839  -12.3559 H         1 <0>         0.0734
     44 H18         5.8470   -1.0606  -14.2968 H         1 <0>         0.0681
     45 H19         6.2849   -2.0850  -12.9066 H         1 <0>         0.0632
     46 H20         3.4714   -1.1583  -13.6513 H         1 <0>         0.0730
     47 H21         4.1168   -2.8090  -13.8271 H         1 <0>         0.0731
     48 H22         2.7499   -2.5570  -11.7520 H         1 <0>         0.0970
     49 H23         4.4447   -2.9620  -11.3881 H         1 <0>         0.0483
@<TRIPOS>BOND
     1    1    2 1
     2    1   28 1
     3    1   29 1
     4    1   30 1
     5    2    7 1
     6    2    3 2
     7    3    4 1
     8    3    8 1
     9    4    5 1
    10    5    6 1
    11    5    7 2
    12    8    9 1
    13    8   31 1
    14    8   32 1
    15    9   10 2
    16    9   11 am
    17   11   12 1
    18   11   33 1
    19   12   17 ar
    20   12   13 ar
    21   13   14 ar
    22   13   34 1
    23   14   15 ar
    24   14   35 1
    25   15   16 ar
    26   15   36 1
    27   16   17 ar
    28   16   18 1
    29   17   37 1
    30   18   19 1
    31   18   38 1
    32   18   39 1
    33   19   20 1
    34   20   21 1
    35   20   40 1
    36   20   41 1
    37   21   22 1
    38   21   27 1
    39   21   23 1
    40   23   24 1
    41   23   42 1
    42   23   43 1
    43   24   25 1
    44   24   44 1
    45   24   45 1
    46   25   26 1
    47   25   46 1
    48   25   47 1
    49   26   27 1
    50   26   48 1
    51   26   49 1
@<TRIPOS>MOLECULE
ZINC65223551
   47    49     0     0     0
SMALL
USER_CHARGES

@<TRIPOS>ATOM
      1 C1         -0.0184    1.5028    0.0103 C.3       1 <0>        -0.0794
      2 C2          0.0021   -0.0041    0.0020 C.ar      1 <0>        -0.1629
      3 C3          0.0058   -0.6849   -1.1941 C.ar      1 <0>        -0.0137
      4 C4          0.0252   -2.0825   -1.2009 C.ar      1 <0>        -0.2527
      5 C5          0.0408   -2.7845    0.0082 C.ar      1 <0>        -0.0279
      6 C6          0.0370   -2.0981    1.2006 C.ar      1 <0>        -0.2730
      7 C7          0.0230   -0.7057    1.2040 C.ar      1 <0>         0.3119
      8 N1          0.0250   -0.0148    2.4107 N.2       1 <0>        -1.0727
      9 S1          0.0499   -0.8479    3.8417 S.o2      1 <0>         2.6010
     10 O1         -1.1853   -1.5451    3.9273 O.2       1 <0>        -1.0218
     11 O2          1.3051   -1.5112    3.9037 O.2       1 <0>        -1.0207
     12 C8          0.0460    0.3446    5.1389 C.ar      1 <0>        -0.6183
     13 C9          1.2435    0.8324    5.6318 C.ar      1 <0>         0.0072
     14 C10         1.2497    1.7688    6.6501 C.ar      1 <0>        -0.1443
     15 C11         0.0600    2.2232    7.1809 C.ar      1 <0>        -0.0331
     16 C12        -1.1519    1.7356    6.6880 C.ar      1 <0>        -0.0585
     17 C13        -1.1508    0.7940    5.6567 C.ar      1 <0>         0.0269
     18 C14        -2.3905    2.2027    7.2342 C.1       1 <0>         0.2625
     19 N2         -3.3731    2.5732    7.6675 N.1       1 <0>        -0.4227
     20 C15         0.0287   -2.8154   -2.4812 C.2       1 <0>         0.5745
     21 O3          0.0147   -2.2037   -3.5320 O.2       1 <0>        -0.5632
     22 N3          0.0474   -4.1630   -2.4862 N.am      1 <0>        -0.7335
     23 C16         0.0509   -4.8909   -3.7576 C.3       1 <0>         0.1424
     24 C17        -1.3968   -5.1260   -4.2358 C.3       1 <0>        -0.1357
     25 C18        -1.3614   -6.5366   -4.8746 C.3       1 <0>        -0.1242
     26 C19        -0.4037   -7.3126   -3.9366 C.3       1 <0>        -0.1238
     27 C20         0.6823   -6.2812   -3.5673 C.3       1 <0>        -0.1326
     28 H1          1.0042    1.8801    0.0026 H         1 <0>         0.0491
     29 H2         -0.5455    1.8639   -0.8728 H         1 <0>         0.0409
     30 H3         -0.5286    1.8543    0.9071 H         1 <0>         0.0728
     31 H4         -0.0067   -0.1399   -2.1264 H         1 <0>         0.1189
     32 H5          0.0555   -3.8644    0.0061 H         1 <0>         0.1039
     33 H6          0.0487   -2.6397    2.1349 H         1 <0>         0.1029
     34 H7          2.1777    0.4802    5.2199 H         1 <0>         0.1459
     35 H8          2.1878    2.1448    7.0306 H         1 <0>         0.1397
     36 H9          0.0662    2.9539    7.9761 H         1 <0>         0.1356
     37 H10        -2.0847    0.4156    5.2683 H         1 <0>         0.1470
     38 H11         0.0586   -4.6510   -1.6479 H         1 <0>         0.3971
     39 H12         0.6061   -4.3282   -4.5081 H         1 <0>         0.0882
     40 H13        -2.0854   -5.1069   -3.3912 H         1 <0>         0.0704
     41 H14        -1.6798   -4.3786   -4.9770 H         1 <0>         0.0693
     42 H15        -2.3540   -6.9870   -4.8717 H         1 <0>         0.0657
     43 H16        -0.9591   -6.4924   -5.8866 H         1 <0>         0.0668
     44 H17        -0.9320   -7.6467   -3.0436 H         1 <0>         0.0663
     45 H18         0.0379   -8.1610   -4.4594 H         1 <0>         0.0649
     46 H19         1.5434   -6.3935   -4.2261 H         1 <0>         0.0719
     47 H20         0.9861   -6.4144   -2.5290 H         1 <0>         0.0711
@<TRIPOS>BOND
     1    1    2 1
     2    1   28 1
     3    1   29 1
     4    1   30 1
     5    2    7 ar
     6    2    3 ar
     7    3    4 ar
     8    3   31 1
     9    4    5 ar
    10    4   20 1
    11    5    6 ar
    12    5   32 1
    13    6    7 ar
    14    6   33 1
    15    7    8 1
    16    8    9 1
    17    9   10 2
    18    9   11 2
    19    9   12 1
    20   12   17 ar
    21   12   13 ar
    22   13   14 ar
    23   13   34 1
    24   14   15 ar
    25   14   35 1
    26   15   16 ar
    27   15   36 1
    28   16   17 ar
    29   16   18 1
    30   17   37 1
    31   18   19 3
    32   20   21 2
    33   20   22 am
    34   22   23 1
    35   22   38 1
    36   23   27 1
    37   23   24 1
    38   23   39 1
    39   24   25 1
    40   24   40 1
    41   24   41 1
    42   25   26 1
    43   25   42 1
    44   25   43 1
    45   26   27 1
    46   26   44 1
    47   26   45 1
    48   27   46 1
    49   27   47 1
@<TRIPOS>MOLECULE
ZINC13073140
   35    36     0     0     0
SMALL
USER_CHARGES
4-bromo-3-[[(1S)-1-(3,4-difluorophenyl)ethyl]sulfamoyl]benzoic acid
@<TRIPOS>ATOM
      1 C1          5.4571    2.5199    1.6365 C.3       1 <0>        -0.1674
      2 C2          3.9401    2.5171    1.8357 C.3       1 <0>         0.1918
      3 H1          3.4916    1.7536    1.2002 H         1 <0>         0.1039
      4 C3          3.6235    2.2193    3.2787 C.ar      1 <0>        -0.0653
      5 C4          3.2451    0.9434    3.6535 C.ar      1 <0>        -0.0872
      6 C5          2.9552    0.6675    4.9764 C.ar      1 <0>        -0.1188
      7 C6          3.0430    1.6692    5.9275 C.ar      1 <0>         0.0657
      8 C7          3.4220    2.9488    5.5516 C.ar      1 <0>         0.0705
      9 C8          3.7173    3.2204    4.2269 C.ar      1 <0>        -0.1146
     10 F1          3.5090    3.9280    6.4783 F         1 <0>        -0.1288
     11 F2          2.7593    1.4005    7.2208 F         1 <0>        -0.1297
     12 N1          3.3982    3.8303    1.4779 N.pl3     1 <0>        -1.1089
     13 S1          2.7748    4.0845   -0.0350 S.o2      1 <0>         2.6889
     14 O1          3.7402    3.6008   -0.9587 O.2       1 <0>        -0.9472
     15 O2          2.3014    5.4242   -0.0594 O.2       1 <0>        -0.9427
     16 C9          1.3596    3.0473   -0.1964 C.ar      1 <0>        -0.6724
     17 C10         1.3517    2.0348   -1.1327 C.ar      1 <0>         0.0157
     18 C11         0.2293    1.2137   -1.2593 C.ar      1 <0>        -0.1134
     19 C12        -0.8770    1.4206   -0.4319 C.ar      1 <0>        -0.0188
     20 C13        -0.8590    2.4401    0.4960 C.ar      1 <0>        -0.1220
     21 C14         0.2576    3.2508    0.6169 C.ar      1 <0>        -0.0061
     22 Br1         0.2767    4.6419    1.8977 Br        1 <0>        -0.0416
     23 C15         0.2142    0.1276   -2.2598 C.2       1 <0>         0.4882
     24 O3          1.1794   -0.0530   -2.9749 O.co2     1 <0>        -0.6178
     25 H2          5.8603    1.5428    1.9027 H         1 <0>         0.0730
     26 H3          5.6861    2.7353    0.5928 H         1 <0>         0.0817
     27 H4          5.9056    3.2834    2.2720 H         1 <0>         0.0644
     28 H5          3.1764    0.1614    2.9118 H         1 <0>         0.1467
     29 H6          2.6597   -0.3295    5.2679 H         1 <0>         0.1490
     30 H7          4.0170    4.2157    3.9335 H         1 <0>         0.1452
     31 H8          3.4046    4.5509    2.1272 H         1 <0>         0.4172
     32 H9          2.2118    1.8770   -1.7664 H         1 <0>         0.1578
     33 H10        -1.7464    0.7863   -0.5222 H         1 <0>         0.1497
     34 H11        -1.7155    2.6041    1.1330 H         1 <0>         0.1377
     35 O4         -0.8701   -0.6629   -2.3795 O.co2     1 <0>        -0.7440
@<TRIPOS>BOND
     1    1    2 1
     2    1   25 1
     3    1   26 1
     4    1   27 1
     5    2    3 1
     6    2    4 1
     7    2   12 1
     8    4    9 ar
     9    4    5 ar
    10    5    6 ar
    11    5   28 1
    12    6    7 ar
    13    6   29 1
    14    7    8 ar
    15    7   11 1
    16    8    9 ar
    17    8   10 1
    18    9   30 1
    19   12   13 1
    20   12   31 1
    21   13   14 2
    22   13   15 2
    23   13   16 1
    24   16   21 ar
    25   16   17 ar
    26   17   18 ar
    27   17   32 1
    28   18   19 ar
    29   18   23 1
    30   19   20 ar
    31   19   33 1
    32   20   21 ar
    33   20   34 1
    34   21   22 1
    35   23   24 2
    36   23   35 1
@<TRIPOS>MOLECULE
ZINC38756368
   48    49     0     0     0
SMALL
USER_CHARGES

@<TRIPOS>ATOM
      1 C1         -0.0184    1.5028    0.0103 C.3       1 <0>        -0.1164
      2 C2          0.0021   -0.0041    0.0020 C.ar      1 <0>        -0.0525
      3 C3          0.0057   -0.6887   -1.1989 C.ar      1 <0>        -0.1478
      4 C4          0.0245   -2.0709   -1.2065 C.ar      1 <0>        -0.0202
      5 C5          0.0400   -2.7685   -0.0132 C.ar      1 <0>        -0.6205
      6 C6          0.0373   -2.0839    1.1877 C.ar      1 <0>        -0.0203
      7 C7          0.0229   -0.7016    1.1953 C.ar      1 <0>        -0.1477
      8 S1          0.0628   -4.5303   -0.0229 S.o2      1 <0>         2.6047
      9 O1         -0.4759   -4.9503    1.2232 O.2       1 <0>        -1.0276
     10 O2         -0.4897   -4.9367   -1.2674 O.2       1 <0>        -1.0277
     11 N1          1.6509   -4.9994   -0.0343 N.2       1 <0>        -1.0862
     12 C8          1.9781   -6.3583   -0.0434 C.ar      1 <0>         0.2762
     13 C9          0.9700   -7.3159   -0.0488 C.ar      1 <0>        -0.2285
     14 C10         1.2874   -8.6604   -0.0574 C.ar      1 <0>        -0.0618
     15 C11         2.6093   -9.0628   -0.0613 C.ar      1 <0>        -0.0816
     16 C12         3.6293   -8.1084   -0.0564 C.ar      1 <0>        -0.0916
     17 C13         3.3072   -6.7505   -0.0530 C.ar      1 <0>        -0.1381
     18 C14         5.0442   -8.5349   -0.0605 C.2       1 <0>         0.5604
     19 O3          5.3222   -9.7183   -0.0681 O.2       1 <0>        -0.5253
     20 N2          6.0263   -7.6120   -0.0558 N.am      1 <0>        -0.7329
     21 C15         7.4290   -8.0348   -0.0599 C.3       1 <0>         0.1212
     22 C16         8.3337   -6.8010   -0.0532 C.3       1 <0>        -0.1293
     23 C17         9.7985   -7.2426   -0.0574 C.3       1 <0>        -0.0927
     24 C18        10.1095   -7.9654   -1.3695 C.3       1 <0>        -0.1522
     25 C19        10.7018   -6.0148    0.0750 C.3       1 <0>        -0.1469
     26 Cl1         3.0023  -10.7537   -0.0715 Cl        1 <0>        -0.0755
     27 H1          1.0042    1.8801    0.0026 H         1 <0>         0.0730
     28 H2         -0.5455    1.8639   -0.8728 H         1 <0>         0.0671
     29 H3         -0.5286    1.8543    0.9071 H         1 <0>         0.0671
     30 H4         -0.0064   -0.1436   -2.1312 H         1 <0>         0.1254
     31 H5          0.0266   -2.6057   -2.1448 H         1 <0>         0.1363
     32 H6          0.0491   -2.6289    2.1200 H         1 <0>         0.1363
     33 H7          0.0245   -0.1667    2.1335 H         1 <0>         0.1254
     34 H8         -0.0650   -7.0074   -0.0458 H         1 <0>         0.1098
     35 H9          0.4998   -9.3994   -0.0608 H         1 <0>         0.1214
     36 H10         4.0913   -6.0078   -0.0536 H         1 <0>         0.1243
     37 H11         5.8045   -6.6677   -0.0497 H         1 <0>         0.4021
     38 H12         7.6294   -8.6372    0.8262 H         1 <0>         0.0635
     39 H13         7.6276   -8.6262   -0.9537 H         1 <0>         0.0669
     40 H14         8.1332   -6.1987   -0.9392 H         1 <0>         0.0703
     41 H15         8.1350   -6.2097    0.8407 H         1 <0>         0.0701
     42 H16         9.9771   -7.9170    0.7801 H         1 <0>         0.0720
     43 H17         9.9309   -7.2910   -2.2070 H         1 <0>         0.0549
     44 H18        11.1531   -8.2801   -1.3726 H         1 <0>         0.0525
     45 H19         9.4660   -8.8401   -1.4639 H         1 <0>         0.0597
     46 H20        10.4802   -5.4999    1.0098 H         1 <0>         0.0546
     47 H21        11.7453   -6.3294    0.0720 H         1 <0>         0.0535
     48 H22        10.5232   -5.3404   -0.7625 H         1 <0>         0.0547
@<TRIPOS>BOND
     1    1    2 1
     2    1   27 1
     3    1   28 1
     4    1   29 1
     5    2    7 ar
     6    2    3 ar
     7    3    4 ar
     8    3   30 1
     9    4    5 ar
    10    4   31 1
    11    5    6 ar
    12    5    8 1
    13    6    7 ar
    14    6   32 1
    15    7   33 1
    16    8    9 2
    17    8   10 2
    18    8   11 1
    19   11   12 1
    20   12   17 ar
    21   12   13 ar
    22   13   14 ar
    23   13   34 1
    24   14   15 ar
    25   14   35 1
    26   15   16 ar
    27   15   26 1
    28   16   17 ar
    29   16   18 1
    30   17   36 1
    31   18   19 2
    32   18   20 am
    33   20   21 1
    34   20   37 1
    35   21   22 1
    36   21   38 1
    37   21   39 1
    38   22   23 1
    39   22   40 1
    40   22   41 1
    41   23   24 1
    42   23   25 1
    43   23   42 1
    44   24   43 1
    45   24   44 1
    46   24   45 1
    47   25   46 1
    48   25   47 1
    49   25   48 1
@<TRIPOS>MOLECULE
ZINC44899920
   49    51     0     0     0
SMALL
USER_CHARGES

@<TRIPOS>ATOM
      1 C1         -0.0608    1.4250    0.0289 C.3       1 <0>        -0.1457
      2 C2         -0.0894   -0.1047    0.0374 C.3       1 <0>        -0.1261
      3 C3         -1.5412   -0.5875    0.0521 C.3       1 <0>         0.1873
      4 H1         -2.0650   -0.1383    0.8959 H         1 <0>         0.0958
      5 C4         -1.5700   -2.0884    0.1844 C.ar      1 <0>        -0.0865
      6 C5         -1.3472   -2.8843   -0.9236 C.ar      1 <0>        -0.1134
      7 C6         -1.3737   -4.2611   -0.8023 C.ar      1 <0>        -0.1156
      8 C7         -1.6226   -4.8419    0.4271 C.ar      1 <0>        -0.1230
      9 C8         -1.8445   -4.0460    1.5354 C.ar      1 <0>        -0.1181
     10 C9         -1.8138   -2.6693    1.4149 C.ar      1 <0>        -0.1089
     11 N1         -2.1992   -0.1946   -1.1964 N.am      1 <0>        -0.7313
     12 C10        -2.7441    1.0325   -1.3138 C.2       1 <0>         0.5793
     13 O1         -2.6897    1.8134   -0.3833 O.2       1 <0>        -0.5520
     14 C11        -3.4067    1.4282   -2.5710 C.ar      1 <0>        -0.2493
     15 C12        -3.4751    0.5294   -3.6396 C.ar      1 <0>        -0.0200
     16 C13        -4.0937    0.9010   -4.8114 C.ar      1 <0>        -0.2652
     17 C14        -4.6513    2.1705   -4.9339 C.ar      1 <0>         0.3190
     18 C15        -4.5847    3.0689   -3.8715 C.ar      1 <0>        -0.1046
     19 C16        -3.9724    2.7005   -2.6942 C.ar      1 <0>        -0.0013
     20 Cl1        -5.2809    4.6513   -4.0289 Cl        1 <0>        -0.0811
     21 N2         -5.2759    2.5429   -6.1198 N.2       1 <0>        -1.0606
     22 S1         -5.2169    1.5407   -7.4368 S.o2      1 <0>         2.6062
     23 O2         -3.8458    1.4099   -7.7866 O.2       1 <0>        -1.0236
     24 O3         -6.0354    0.4200   -7.1314 O.2       1 <0>        -1.0233
     25 C17        -5.9984    2.3864   -8.7705 C.ar      1 <0>        -0.6163
     26 C18        -7.3583    2.2468   -8.9753 C.ar      1 <0>        -0.0234
     27 C19        -7.9714    2.9104  -10.0216 C.ar      1 <0>        -0.1472
     28 C20        -7.2246    3.7138  -10.8628 C.ar      1 <0>        -0.0821
     29 C21        -5.8648    3.8541  -10.6575 C.ar      1 <0>        -0.1471
     30 C22        -5.2525    3.1940   -9.6086 C.ar      1 <0>        -0.0232
     31 H2          0.9734    1.7690    0.0184 H         1 <0>         0.0432
     32 H3         -0.5751    1.7931   -0.8589 H         1 <0>         0.0639
     33 H4         -0.5604    1.8028    0.9210 H         1 <0>         0.0593
     34 H5          0.4101   -0.4824   -0.8547 H         1 <0>         0.0628
     35 H6          0.4249   -0.4727    0.9252 H         1 <0>         0.0666
     36 H7         -1.1527   -2.4305   -1.8842 H         1 <0>         0.1222
     37 H8         -1.2003   -4.8829   -1.6682 H         1 <0>         0.1229
     38 H9         -1.6439   -5.9176    0.5218 H         1 <0>         0.1203
     39 H10        -2.0393   -4.4998    2.4958 H         1 <0>         0.1217
     40 H11        -1.9835   -2.0475    2.2814 H         1 <0>         0.1237
     41 H12        -2.2426   -0.8175   -1.9387 H         1 <0>         0.3971
     42 H13        -3.0425   -0.4557   -3.5457 H         1 <0>         0.1090
     43 H14        -4.1463    0.2069   -5.6371 H         1 <0>         0.1109
     44 H15        -3.9254    3.3954   -1.8687 H         1 <0>         0.1300
     45 H16        -7.9417    1.6191   -8.3181 H         1 <0>         0.1361
     46 H17        -9.0338    2.8007  -10.1820 H         1 <0>         0.1261
     47 H18        -7.7035    4.2317  -11.6807 H         1 <0>         0.1234
     48 H19        -5.2813    4.4816  -11.3149 H         1 <0>         0.1261
     49 H20        -4.1907    3.3066   -9.4459 H         1 <0>         0.1362
@<TRIPOS>BOND
     1    1    2 1
     2    1   31 1
     3    1   32 1
     4    1   33 1
     5    2    3 1
     6    2   34 1
     7    2   35 1
     8    3    4 1
     9    3    5 1
    10    3   11 1
    11    5   10 ar
    12    5    6 ar
    13    6    7 ar
    14    6   36 1
    15    7    8 ar
    16    7   37 1
    17    8    9 ar
    18    8   38 1
    19    9   10 ar
    20    9   39 1
    21   10   40 1
    22   11   12 am
    23   11   41 1
    24   12   13 2
    25   12   14 1
    26   14   19 ar
    27   14   15 ar
    28   15   16 ar
    29   15   42 1
    30   16   17 ar
    31   16   43 1
    32   17   18 ar
    33   17   21 1
    34   18   19 ar
    35   18   20 1
    36   19   44 1
    37   21   22 1
    38   22   23 2
    39   22   24 2
    40   22   25 1
    41   25   30 ar
    42   25   26 ar
    43   26   27 ar
    44   26   45 1
    45   27   28 ar
    46   27   46 1
    47   28   29 ar
    48   28   47 1
    49   29   30 ar
    50   29   48 1
    51   30   49 1
@<TRIPOS>MOLECULE
ZINC46125388
   42    44     0     0     0
SMALL
USER_CHARGES

@<TRIPOS>ATOM
      1 C1          4.4752    0.6429    0.9278 C.ar      1 <0>        -0.0799
      2 C2          5.6016    0.8420    0.1438 C.ar      1 <0>        -0.1943
      3 C3          6.0485   -0.1847   -0.6659 C.ar      1 <0>         0.0955
      4 N1          5.4168   -1.3420   -0.6984 N.ar      1 <0>        -0.4742
      5 C4          4.3430   -1.5666    0.0331 C.ar      1 <0>         0.1815
      6 C5          3.8381   -0.5869    0.8672 C.ar      1 <0>        -0.1636
      7 C6          3.6580   -2.9069   -0.0414 C.3       1 <0>         0.1272
      8 N2          2.7234   -2.9156   -1.1695 N.2       1 <0>        -0.6699
      9 C7          2.0804   -4.0684   -1.5137 C.2       1 <0>         0.6193
     10 N3          1.7974   -5.0031   -0.5596 N.pl3     1 <0>        -0.7059
     11 C8          1.4835   -4.6003    0.7429 C.ar      1 <0>         0.2350
     12 C9          0.8240   -3.3974    0.9593 C.ar      1 <0>        -0.1470
     13 C10         0.5155   -3.0023    2.2462 C.ar      1 <0>        -0.0602
     14 C11         0.8627   -3.8036    3.3193 C.ar      1 <0>        -0.1416
     15 C12         1.5202   -5.0024    3.1067 C.ar      1 <0>        -0.0572
     16 C13         1.8258   -5.4054    1.8216 C.ar      1 <0>        -0.1805
     17 Br1         0.4386   -3.2592    5.0799 Br        1 <0>        -0.0771
     18 N4          1.7306   -4.2808   -2.7731 N.2       1 <0>        -0.6795
     19 C14         0.9550   -5.3278   -3.0855 C.2       1 <0>         0.5087
     20 O1          0.4752   -6.0155   -2.2018 O.2       1 <0>        -0.6205
     21 C15         0.6813   -5.6488   -4.5041 C.ar      1 <0>        -0.0986
     22 C16         1.3198   -4.9350   -5.5192 C.ar      1 <0>        -0.0354
     23 C17         1.0614   -5.2377   -6.8392 C.ar      1 <0>        -0.1718
     24 C18         0.1686   -6.2490   -7.1589 C.ar      1 <0>         0.0974
     25 C19        -0.4683   -6.9610   -6.1541 C.ar      1 <0>        -0.1713
     26 C20        -0.2119   -6.6700   -4.8311 C.ar      1 <0>        -0.0532
     27 F1         -0.0820   -6.5414   -8.4538 F         1 <0>        -0.1467
     28 H1          4.1056    1.4258    1.5735 H         1 <0>         0.1262
     29 H2          6.1228    1.7877    0.1656 H         1 <0>         0.1256
     30 H3          6.9250   -0.0376   -1.2794 H         1 <0>         0.1473
     31 H4          2.9585   -0.7770    1.4643 H         1 <0>         0.1273
     32 H5          4.4042   -3.6889   -0.1817 H         1 <0>         0.0362
     33 H6          3.1118   -3.0877    0.8843 H         1 <0>         0.0382
     34 H7          0.5530   -2.7713    0.1220 H         1 <0>         0.1338
     35 H8          0.0029   -2.0667    2.4150 H         1 <0>         0.1252
     36 H9          1.7907   -5.6256    3.9463 H         1 <0>         0.1251
     37 H10         2.3347   -6.3434    1.6559 H         1 <0>         0.1244
     38 H11         1.8139   -5.9464   -0.7849 H         1 <0>         0.4026
     39 H12         2.0150   -4.1466   -5.2712 H         1 <0>         0.1515
     40 H13         1.5551   -4.6860   -7.6254 H         1 <0>         0.1328
     41 H14        -1.1633   -7.7476   -6.4082 H         1 <0>         0.1311
     42 H15        -0.7052   -7.2281   -4.0491 H         1 <0>         0.1367
@<TRIPOS>BOND
     1    1    6 ar
     2    1    2 ar
     3    1   28 1
     4    2    3 ar
     5    2   29 1
     6    3    4 ar
     7    3   30 1
     8    4    5 ar
     9    5    6 ar
    10    5    7 1
    11    6   31 1
    12    7   32 1
    13    7   33 1
    14    7    8 1
    15    8    9 1
    16    9   10 1
    17    9   18 2
    18   10   11 1
    19   10   38 1
    20   11   16 ar
    21   11   12 ar
    22   12   13 ar
    23   12   34 1
    24   13   14 ar
    25   13   35 1
    26   14   15 ar
    27   14   17 1
    28   15   16 ar
    29   15   36 1
    30   16   37 1
    31   18   19 1
    32   19   20 2
    33   19   21 1
    34   21   26 ar
    35   21   22 ar
    36   22   23 ar
    37   22   39 1
    38   23   24 ar
    39   23   40 1
    40   24   25 ar
    41   24   27 1
    42   25   26 ar
    43   25   41 1
    44   26   42 1
@<TRIPOS>MOLECULE
ZINC65029457
   58    60     0     0     0
SMALL
USER_CHARGES

@<TRIPOS>ATOM
      1 C1         -1.9594    0.4063    0.2075 C.3       1 <0>        -0.1423
      2 C2         -0.8222   -0.5953   -0.0041 C.3       1 <0>        -0.6041
      3 S1         -0.3715   -1.3430    1.5860 S.o2      1 <0>         2.5272
      4 O1          0.2222   -0.3695    2.4339 O.2       1 <0>        -1.0291
      5 O2         -1.4298   -2.1657    2.0575 O.2       1 <0>        -1.0291
      6 N1          0.8553   -2.3963    1.2284 N.2       1 <0>        -1.1009
      7 C3          1.4454   -3.1519    2.2442 C.ar      1 <0>         0.2881
      8 C4          1.0005   -3.0253    3.5540 C.ar      1 <0>        -0.2571
      9 C5          1.5859   -3.7742    4.5559 C.ar      1 <0>        -0.0593
     10 C6          2.6140   -4.6491    4.2564 C.ar      1 <0>        -0.1947
     11 C7          3.0593   -4.7776    2.9535 C.ar      1 <0>        -0.0649
     12 C8          2.4746   -4.0359    1.9459 C.ar      1 <0>        -0.1836
     13 C9          3.2510   -5.4640    5.3524 C.3       1 <0>        -0.0093
     14 C10         2.6685   -5.0449    6.7037 C.3       1 <0>        -0.1094
     15 C11         3.3152   -5.8722    7.8165 C.3       1 <0>        -0.1220
     16 C12         3.0331   -7.3569    7.5779 C.3       1 <0>        -0.1179
     17 C13         3.6156   -7.7760    6.2266 C.3       1 <0>        -0.1295
     18 C14         2.9689   -6.9487    5.1138 C.3       1 <0>        -0.0873
     19 C15         4.7396   -5.2292    5.3525 C.2       1 <0>         0.5425
     20 O3          5.4955   -6.1293    5.0534 O.2       1 <0>        -0.5453
     21 N2          5.2310   -4.0190    5.6850 N.am      1 <0>        -0.7222
     22 C16         6.6687   -3.7582    5.5801 C.3       1 <0>         0.1843
     23 H1          7.0743   -4.2973    4.7239 H         1 <0>         0.0930
     24 C17         7.3671   -4.2299    6.8571 C.3       1 <0>        -0.1550
     25 C18         6.8992   -2.2801    5.3982 C.ar      1 <0>        -0.0877
     26 C19         6.1434   -1.3696    6.1129 C.ar      1 <0>        -0.1105
     27 C20         6.3548   -0.0138    5.9460 C.ar      1 <0>        -0.1140
     28 C21         7.3222    0.4316    5.0647 C.ar      1 <0>        -0.1209
     29 C22         8.0786   -0.4789    4.3507 C.ar      1 <0>        -0.1173
     30 C23         7.8702   -1.8348    4.5208 C.ar      1 <0>        -0.1085
     31 H2         -1.6336    1.1857    0.8962 H         1 <0>         0.0641
     32 H3         -2.2302    0.8556   -0.7480 H         1 <0>         0.0677
     33 H4         -2.8244   -0.1091    0.6248 H         1 <0>         0.0642
     34 H5         -1.1480   -1.3747   -0.6928 H         1 <0>         0.1186
     35 H6          0.0428   -0.0799   -0.4214 H         1 <0>         0.1184
     36 H7          0.1980   -2.3416    3.7887 H         1 <0>         0.1000
     37 H8          1.2405   -3.6762    5.5744 H         1 <0>         0.1050
     38 H9          3.8625   -5.4618    2.7230 H         1 <0>         0.1009
     39 H10         2.8198   -4.1401    0.9279 H         1 <0>         0.1088
     40 H11         2.8696   -3.9871    6.8737 H         1 <0>         0.0640
     41 H12         1.5919   -5.2147    6.7037 H         1 <0>         0.0781
     42 H13         4.3919   -5.7024    7.8166 H         1 <0>         0.0587
     43 H14         2.9003   -5.5736    8.7792 H         1 <0>         0.0608
     44 H15         3.4938   -7.9463    8.3707 H         1 <0>         0.0548
     45 H16         1.9564   -7.5267    7.5778 H         1 <0>         0.0595
     46 H17         4.6922   -7.6062    6.2267 H         1 <0>         0.0817
     47 H18         3.4145   -8.8337    6.0566 H         1 <0>         0.0550
     48 H19         1.8922   -7.1184    5.1138 H         1 <0>         0.0662
     49 H20         3.3838   -7.2472    4.1511 H         1 <0>         0.0685
     50 H21         4.6326   -3.3208    5.9937 H         1 <0>         0.4004
     51 H22         7.2004   -5.2990    6.9888 H         1 <0>         0.0655
     52 H23         8.4368   -4.0358    6.7791 H         1 <0>         0.0627
     53 H24         6.9615   -3.6908    7.7133 H         1 <0>         0.0563
     54 H25         5.3876   -1.7176    6.8014 H         1 <0>         0.1196
     55 H26         5.7639    0.6976    6.5038 H         1 <0>         0.1226
     56 H27         7.4869    1.4909    4.9338 H         1 <0>         0.1205
     57 H28         8.8342   -0.1309    3.6619 H         1 <0>         0.1216
     58 H29         8.4636   -2.5462    3.9657 H         1 <0>         0.1226
@<TRIPOS>BOND
     1    1    2 1
     2    1   31 1
     3    1   32 1
     4    1   33 1
     5    2    3 1
     6    2   34 1
     7    2   35 1
     8    3    4 2
     9    3    5 2
    10    3    6 1
    11    6    7 1
    12    7   12 ar
    13    7    8 ar
    14    8    9 ar
    15    8   36 1
    16    9   10 ar
    17    9   37 1
    18   10   11 ar
    19   10   13 1
    20   11   12 ar
    21   11   38 1
    22   12   39 1
    23   13   18 1
    24   13   14 1
    25   13   19 1
    26   14   15 1
    27   14   40 1
    28   14   41 1
    29   15   16 1
    30   15   42 1
    31   15   43 1
    32   16   17 1
    33   16   44 1
    34   16   45 1
    35   17   18 1
    36   17   46 1
    37   17   47 1
    38   18   48 1
    39   18   49 1
    40   19   20 2
    41   19   21 am
    42   21   22 1
    43   21   50 1
    44   22   23 1
    45   22   24 1
    46   22   25 1
    47   24   51 1
    48   24   52 1
    49   24   53 1
    50   25   30 ar
    51   25   26 ar
    52   26   27 ar
    53   26   54 1
    54   27   28 ar
    55   27   55 1
    56   28   29 ar
    57   28   56 1
    58   29   30 ar
    59   29   57 1
    60   30   58 1
@<TRIPOS>MOLECULE
ZINC37436275
   34    35     0     0     0
SMALL
USER_CHARGES

@<TRIPOS>ATOM
      1 C1         -0.5096    2.0486   -1.4208 C.3       1 <0>        -0.1383
      2 C2          0.8824    2.6846   -1.4205 C.3       1 <0>        -0.0919
      3 C3          1.8343    1.8331   -2.2636 C.3       1 <0>        -0.1675
      4 H1          1.4491    1.7551   -3.2802 H         1 <0>         0.0653
      5 C4          1.9418    0.4340   -1.6488 C.3       1 <0>         0.1344
      6 N1          0.5910   -0.1274   -1.5117 N.am      1 <0>        -0.6030
      7 C5         -0.4287    0.6520   -0.7965 C.3       1 <0>         0.1010
      8 C6          0.2928   -1.3341   -2.0326 C.2       1 <0>         0.5252
      9 O1          1.1187   -1.9321   -2.6892 O.2       1 <0>        -0.5308
     10 C7         -1.0670   -1.9404   -1.7990 C.3       1 <0>        -0.1247
     11 H2         -1.8274   -1.1599   -1.8252 H         1 <0>         0.1178
     12 C8         -1.0934   -2.6457   -0.4329 C.3       1 <0>        -0.1153
     13 C9         -2.3563   -3.5335   -0.3217 C.3       1 <0>        -0.5755
     14 S1         -2.6968   -3.9727   -2.0749 S.o2      1 <0>         2.3694
     15 O2         -2.4413   -5.3579   -2.2625 O.2       1 <0>        -0.9376
     16 O3         -3.9591   -3.4377   -2.4487 O.2       1 <0>        -0.9372
     17 C10        -1.3649   -3.0011   -2.8970 C.3       1 <0>        -0.5551
     18 C11         3.1963    2.4776   -2.2899 C.2       1 <0>         0.4983
     19 O4          3.3883    3.5215   -1.6899 O.co2     1 <0>        -0.6931
     20 O5          4.1061    1.9552   -2.9110 O.co2     1 <0>        -0.6955
     21 H3         -1.1927    2.6679   -0.8395 H         1 <0>         0.0711
     22 H4         -0.8728    1.9686   -2.4454 H         1 <0>         0.0622
     23 H5          0.8232    3.6882   -1.8417 H         1 <0>         0.0652
     24 H6          1.2553    2.7417   -0.3979 H         1 <0>         0.0623
     25 H7          2.5392   -0.2057   -2.2985 H         1 <0>         0.0966
     26 H8          2.4109    0.5013   -0.6672 H         1 <0>         0.0641
     27 H9         -0.1529    0.7370    0.2546 H         1 <0>         0.0721
     28 H10        -1.3954    0.1561   -0.8838 H         1 <0>         0.0794
     29 H11        -0.2039   -3.2671   -0.3291 H         1 <0>         0.0949
     30 H12        -1.1058   -1.8980    0.3602 H         1 <0>         0.1023
     31 H13        -2.1500   -4.4270    0.2675 H         1 <0>         0.1437
     32 H14        -3.1875   -2.9717    0.1044 H         1 <0>         0.1410
     33 H15        -1.7272   -2.5309   -3.8112 H         1 <0>         0.1445
     34 H16        -0.4898   -3.6202   -3.0947 H         1 <0>         0.1545
@<TRIPOS>BOND
     1    1    7 1
     2    1    2 1
     3    1   21 1
     4    1   22 1
     5    2    3 1
     6    2   23 1
     7    2   24 1
     8    3    4 1
     9    3    5 1
    10    3   18 1
    11    5    6 1
    12    5   25 1
    13    5   26 1
    14    6    7 1
    15    6    8 am
    16    7   27 1
    17    7   28 1
    18    8    9 2
    19    8   10 1
    20   10   11 1
    21   10   17 1
    22   10   12 1
    23   12   13 1
    24   12   29 1
    25   12   30 1
    26   13   14 1
    27   13   31 1
    28   13   32 1
    29   14   15 2
    30   14   16 2
    31   14   17 1
    32   17   33 1
    33   17   34 1
    34   18   19 2
    35   18   20 1
@<TRIPOS>MOLECULE
ZINC42303478
   29    30     0     0     0
SMALL
USER_CHARGES

@<TRIPOS>ATOM
      1 C1         -0.0184    1.5028    0.0103 C.3       1 <0>        -0.0528
      2 C2          0.0021   -0.0041    0.0020 C.2       1 <0>         0.0422
      3 C3         -1.0918   -0.8155    0.0026 C.2       1 <0>        -0.1614
      4 C4         -0.5678   -2.1880   -0.0081 C.2       1 <0>        -0.1676
      5 C5          0.7697   -2.0729   -0.0141 C.2       1 <0>        -0.0702
      6 O1          1.0979   -0.7717   -0.0130 O.3       1 <0>        -0.1898
      7 C6         -2.5097   -0.4018    0.0129 C.2       1 <0>         0.5533
      8 O2         -3.4870   -1.3367    0.0120 O.3       1 <0>        -0.7119
      9 N1         -2.8186    0.8627    0.0227 N.2       1 <0>        -1.0571
     10 S1         -4.4083    1.3265    0.0341 S.o2      1 <0>         2.6432
     11 O3         -4.9591    0.9195   -1.2110 O.2       1 <0>        -1.0004
     12 O4         -4.9458    0.9035    1.2797 O.2       1 <0>        -1.0004
     13 C7         -4.4369    3.0882    0.0456 C.ar      1 <0>        -0.6014
     14 C8         -4.4358    3.7691    1.2501 C.ar      1 <0>        -0.0239
     15 C9         -4.4581    5.1483    1.2665 C.ar      1 <0>        -0.0942
     16 C10        -4.4813    5.8572    0.0637 C.ar      1 <0>         0.0025
     17 C11        -4.4817    5.1637   -1.1482 C.ar      1 <0>        -0.0942
     18 C12        -4.4544    3.7845   -1.1499 C.ar      1 <0>        -0.0240
     19 C13        -4.5049    7.2890    0.0731 C.1       1 <0>         0.2592
     20 N2         -4.5237    8.4248    0.0805 N.1       1 <0>        -0.4188
     21 H1          1.0042    1.8801    0.0026 H         1 <0>         0.0562
     22 H2         -0.5455    1.8639   -0.8728 H         1 <0>         0.0934
     23 H3         -0.5286    1.8543    0.9071 H         1 <0>         0.0932
     24 H4         -1.1416   -3.1030   -0.0102 H         1 <0>         0.1515
     25 H5          1.4694   -2.8956   -0.0220 H         1 <0>         0.1988
     26 H6         -4.4179    3.2195    2.1797 H         1 <0>         0.1493
     27 H7         -4.4580    5.6785    2.2074 H         1 <0>         0.1378
     28 H8         -4.4995    5.7059   -2.0821 H         1 <0>         0.1378
     29 H9         -4.4506    3.2469   -2.0866 H         1 <0>         0.1494
@<TRIPOS>BOND
     1    1    2 1
     2    1   21 1
     3    1   22 1
     4    1   23 1
     5    2    6 1
     6    2    3 2
     7    3    4 1
     8    3    7 1
     9    4    5 2
    10    4   24 1
    11    5    6 1
    12    5   25 1
    13    7    8 1
    14    7    9 2
    15    9   10 1
    16   10   11 2
    17   10   12 2
    18   10   13 1
    19   13   18 ar
    20   13   14 ar
    21   14   15 ar
    22   14   26 1
    23   15   16 ar
    24   15   27 1
    25   16   17 ar
    26   16   19 1
    27   17   18 ar
    28   17   28 1
    29   18   29 1
    30   19   20 3
@<TRIPOS>MOLECULE
ZINC48726477
   36    37     0     0     0
SMALL
USER_CHARGES

@<TRIPOS>ATOM
      1 C1          0.4257    0.6682    0.2613 C.3       1 <0>        -0.1447
      2 C2          0.2444   -0.8091   -0.0933 C.3       1 <0>        -0.0079
      3 C3         -1.2216   -1.1570   -0.0618 C.2       1 <0>        -0.0780
      4 N1         -2.1049   -1.1061   -1.0350 N.2       1 <0>        -0.2741
      5 N2         -3.3140   -1.4313   -0.8635 N.2       1 <0>        -0.3221
      6 C4         -3.7003   -1.8382    0.3458 C.2       1 <0>         0.3199
      7 S1         -2.1504   -1.7186    1.2280 S.3       1 <0>        -0.0196
      8 N3         -4.9175   -2.2342    0.7801 N.2       1 <0>        -0.5920
      9 C5         -5.9320   -2.2531   -0.0451 C.2       1 <0>         0.4084
     10 O1         -5.7630   -1.8761   -1.3342 O.3       1 <0>        -0.5977
     11 C6         -7.2643   -2.6865    0.4303 C.2       1 <0>         0.5570
     12 O2         -8.1637   -2.8700   -0.3663 O.2       1 <0>        -0.5291
     13 N4         -7.4806   -2.8780    1.7467 N.am      1 <0>        -0.5926
     14 C7         -6.4619   -2.4996    2.7355 C.3       1 <0>         0.0655
     15 C8         -7.1048   -1.5804    3.7788 C.3       1 <0>        -0.1297
     16 C9         -8.3328   -2.2724    4.3749 C.3       1 <0>        -0.0948
     17 C10        -9.3570   -2.5390    3.2694 C.3       1 <0>        -0.1267
     18 C11        -8.7421   -3.4634    2.2207 C.3       1 <0>         0.1080
     19 C12        -8.9576   -1.3716    5.4421 C.3       1 <0>        -0.1449
     20 H1          1.4860    0.9198    0.2385 H         1 <0>         0.0587
     21 H2         -0.1094    1.2838   -0.4617 H         1 <0>         0.0582
     22 H3          0.0297    0.8534    1.2598 H         1 <0>         0.0547
     23 H4          0.6404   -0.9943   -1.0918 H         1 <0>         0.0840
     24 H5          0.7795   -1.4246    0.6297 H         1 <0>         0.0763
     25 H6         -6.0771   -3.3945    3.2246 H         1 <0>         0.0574
     26 H7         -5.6471   -1.9737    2.2378 H         1 <0>         0.1657
     27 H8         -6.3858   -1.3698    4.5706 H         1 <0>         0.0703
     28 H9         -7.4077   -0.6471    3.3041 H         1 <0>         0.0608
     29 H10        -8.0330   -3.2174    4.8278 H         1 <0>         0.0692
     30 H11       -10.2410   -3.0107    3.6985 H         1 <0>         0.0692
     31 H12        -9.6387   -1.5967    2.7995 H         1 <0>         0.0647
     32 H13        -9.4313   -3.5733    1.3834 H         1 <0>         0.0878
     33 H14        -8.5474   -4.4387    2.6668 H         1 <0>         0.0629
     34 H15        -9.2570   -0.4262    4.9898 H         1 <0>         0.0523
     35 H16        -9.8323   -1.8643    5.8668 H         1 <0>         0.0504
     36 H17        -8.2287   -1.1826    6.2302 H         1 <0>         0.0530
@<TRIPOS>BOND
     1    1    2 1
     2    1   20 1
     3    1   21 1
     4    1   22 1
     5    2    3 1
     6    2   23 1
     7    2   24 1
     8    3    7 1
     9    3    4 2
    10    4    5 1
    11    5    6 2
    12    6    7 1
    13    6    8 1
    14    8    9 2
    15    9   10 1
    16    9   11 1
    17   11   12 2
    18   11   13 am
    19   13   18 1
    20   13   14 1
    21   14   15 1
    22   14   25 1
    23   14   26 1
    24   15   16 1
    25   15   27 1
    26   15   28 1
    27   16   17 1
    28   16   19 1
    29   16   29 1
    30   17   18 1
    31   17   30 1
    32   17   31 1
    33   18   32 1
    34   18   33 1
    35   19   34 1
    36   19   35 1
    37   19   36 1
@<TRIPOS>MOLECULE
ZINC61937608
   44    46     0     0     0
SMALL
USER_CHARGES

@<TRIPOS>ATOM
      1 C1          0.1565    2.1943    0.8997 C.3       1 <0>        -0.1192
      2 C2          1.6272    2.4785    0.6093 C.3       1 <0>        -0.1129
      3 C3          2.5471    1.7144    1.5760 C.3       1 <0>        -0.1174
      4 C4          2.2209    0.2419    1.4410 C.3       1 <0>         0.1606
      5 H1          2.2955   -0.0475    0.3928 H         1 <0>         0.0537
      6 C5          0.7586    0.0378    1.9224 C.3       1 <0>        -0.1044
      7 H2          0.6035    0.4693    2.9112 H         1 <0>         0.0864
      8 C6         -0.1397    0.6862    0.8827 C.3       1 <0>        -0.1037
      9 C7          0.7003   -1.4969    1.9728 C.3       1 <0>        -0.1065
     10 C8          2.1057   -1.8495    2.5327 C.3       1 <0>         0.0470
     11 H3          2.4867   -2.7454    2.0426 H         1 <0>         0.0746
     12 N1          2.9800   -0.6965    2.2515 N.am      1 <0>        -0.6009
     13 C9          4.2542   -0.5489    2.6651 C.2       1 <0>         0.7407
     14 O1          4.8994    0.4196    2.3129 O.2       1 <0>        -0.6109
     15 N2          4.8132   -1.4749    3.4693 N.am      1 <0>        -0.6057
     16 C10         4.2099   -2.8196    3.5297 C.3       1 <0>         0.0572
     17 C11         5.2921   -3.9091    3.5414 C.3       1 <0>        -0.1643
     18 C12         6.4040   -3.5306    2.5839 C.3       1 <0>         0.0790
     19 O2          7.3929   -2.8003    3.2976 O.3       1 <0>        -0.3945
     20 C13         7.2630   -1.4326    3.4292 C.3       1 <0>         0.0590
     21 C14         5.9894   -1.1130    4.2385 C.3       1 <0>         0.1090
     22 C15         2.0243   -2.0737    4.0207 C.2       1 <0>         0.5031
     23 O3          1.5016   -3.0850    4.4571 O.co2     1 <0>        -0.6995
     24 O4          2.4811   -1.2437    4.7881 O.co2     1 <0>        -0.6729
     25 H4         -0.0969    2.5960    1.8808 H         1 <0>         0.0600
     26 H5         -0.4572    2.6864    0.1452 H         1 <0>         0.0576
     27 H6          1.8538    2.1757   -0.4130 H         1 <0>         0.0570
     28 H7          1.8109    3.5479    0.7124 H         1 <0>         0.0603
     29 H8          3.5899    1.8888    1.3112 H         1 <0>         0.0838
     30 H9          2.3638    2.0423    2.5992 H         1 <0>         0.0635
     31 H10        -1.1855    0.5107    1.1349 H         1 <0>         0.0647
     32 H11         0.0787    0.2764   -0.1035 H         1 <0>         0.0630
     33 H12        -0.0849   -1.8354    2.6488 H         1 <0>         0.0800
     34 H13         0.5615   -1.9150    0.9758 H         1 <0>         0.0647
     35 H14         3.6093   -2.9020    4.4355 H         1 <0>         0.1123
     36 H15         3.5672   -2.9628    2.6610 H         1 <0>         0.0989
     37 H16         5.6977   -4.0070    4.5483 H         1 <0>         0.0731
     38 H17         4.8547   -4.8586    3.2327 H         1 <0>         0.0788
     39 H18         6.8481   -4.4334    2.1644 H         1 <0>         0.0820
     40 H19         6.0009   -2.9124    1.7818 H         1 <0>         0.0480
     41 H20         8.1344   -1.0331    3.9479 H         1 <0>         0.0960
     42 H21         7.1883   -0.9780    2.4413 H         1 <0>         0.0461
     43 H22         5.9639   -0.0462    4.4606 H         1 <0>         0.0781
     44 H23         6.0014   -1.6777    5.1707 H         1 <0>         0.0744
@<TRIPOS>BOND
     1    1    8 1
     2    1    2 1
     3    1   25 1
     4    1   26 1
     5    2    3 1
     6    2   27 1
     7    2   28 1
     8    3    4 1
     9    3   29 1
    10    3   30 1
    11    4    5 1
    12    4   12 1
    13    4    6 1
    14    6    7 1
    15    6    8 1
    16    6    9 1
    17    8   31 1
    18    8   32 1
    19    9   10 1
    20    9   33 1
    21    9   34 1
    22   10   11 1
    23   10   12 1
    24   10   22 1
    25   12   13 am
    26   13   14 2
    27   13   15 am
    28   15   21 1
    29   15   16 1
    30   16   17 1
    31   16   35 1
    32   16   36 1
    33   17   18 1
    34   17   37 1
    35   17   38 1
    36   18   19 1
    37   18   39 1
    38   18   40 1
    39   19   20 1
    40   20   21 1
    41   20   41 1
    42   20   42 1
    43   21   43 1
    44   21   44 1
    45   22   23 2
    46   22   24 1
@<TRIPOS>MOLECULE
ZINC62924978
   36    37     0     0     0
SMALL
USER_CHARGES

@<TRIPOS>ATOM
      1 C1         -0.0187    1.5258    0.0104 C.3       1 <0>        -0.1109
      2 C2          0.0021   -0.0041    0.0020 C.3       1 <0>        -0.1386
      3 C3         -1.4307   -0.5735    0.1764 C.3       1 <0>        -0.1072
      4 C4         -1.6023   -0.5179    1.7149 C.3       1 <0>         0.1245
      5 N1         -0.2746   -0.8619    2.2555 N.pl3     1 <0>        -1.0056
      6 C5          0.7430   -0.5469    1.2421 C.3       1 <0>         0.1439
      7 S1          0.0217   -1.4970    3.7559 S.o2      1 <0>         2.6290
      8 O1          1.3488   -1.0937    4.0647 O.2       1 <0>        -0.9559
      9 O2         -1.0712   -1.0649    4.5547 O.2       1 <0>        -0.9562
     10 C6         -0.0469   -3.2947    3.5230 C.3       1 <0>        -0.5991
     11 C7         -1.3912   -3.6794    2.8976 C.3       1 <0>        -0.1405
     12 C8         -1.4718   -5.2035    2.7775 C.3       1 <0>         0.0686
     13 O3         -1.3052   -5.7912    4.0694 O.3       1 <0>        -0.3818
     14 C9         -0.0468   -5.5047    4.6829 C.3       1 <0>         0.0708
     15 C10         0.0911   -3.9927    4.8795 C.3       1 <0>        -0.1429
     16 C11         0.6343   -0.5198   -1.2650 C.2       1 <0>         0.5077
     17 O4          1.0532    0.2637   -2.1000 O.co2     1 <0>        -0.6888
     18 O5          0.7269   -1.7206   -1.4551 O.co2     1 <0>        -0.6942
     19 H1          1.0039    1.9031    0.0027 H         1 <0>         0.0525
     20 H2         -0.5459    1.8868   -0.8726 H         1 <0>         0.0556
     21 H3         -0.5289    1.8773    0.9072 H         1 <0>         0.0359
     22 H4         -2.1656    0.0587   -0.3218 H         1 <0>         0.0738
     23 H5         -1.4902   -1.5995   -0.1866 H         1 <0>         0.0806
     24 H6         -1.8913    0.4853    2.0284 H         1 <0>         0.0670
     25 H7         -2.3448   -1.2465    2.0404 H         1 <0>         0.0682
     26 H8          1.2954   -1.4489    0.9786 H         1 <0>         0.0704
     27 H9          1.4268    0.2101    1.6263 H         1 <0>         0.0636
     28 H10         0.7651   -3.6086    2.8671 H         1 <0>         0.1391
     29 H11        -2.2032   -3.3204    3.5299 H         1 <0>         0.0865
     30 H12        -1.4739   -3.2312    1.9074 H         1 <0>         0.0962
     31 H13        -2.4437   -5.4854    2.3726 H         1 <0>         0.1010
     32 H14        -0.6841   -5.5579    2.1127 H         1 <0>         0.0575
     33 H15         0.0079   -6.0035    5.6505 H         1 <0>         0.0995
     34 H16         0.7596   -5.8631    4.0429 H         1 <0>         0.0558
     35 H17         1.0685   -3.7685    5.3067 H         1 <0>         0.0872
     36 H18        -0.6910   -3.6400    5.5518 H         1 <0>         0.0870
@<TRIPOS>BOND
     1    1    2 1
     2    1   19 1
     3    1   20 1
     4    1   21 1
     5    2    6 1
     6    2    3 1
     7    2   16 1
     8    3    4 1
     9    3   22 1
    10    3   23 1
    11    4    5 1
    12    4   24 1
    13    4   25 1
    14    5    6 1
    15    5    7 1
    16    6   26 1
    17    6   27 1
    18    7    8 2
    19    7    9 2
    20    7   10 1
    21   10   15 1
    22   10   11 1
    23   10   28 1
    24   11   12 1
    25   11   29 1
    26   11   30 1
    27   12   13 1
    28   12   31 1
    29   12   32 1
    30   13   14 1
    31   14   15 1
    32   14   33 1
    33   14   34 1
    34   15   35 1
    35   15   36 1
    36   16   17 2
    37   16   18 1
@<TRIPOS>MOLECULE
ZINC13416570
   46    49     0     0     0
SMALL
USER_CHARGES
(2S)-1-[2-(5-phenylthieno[3,2-e]pyrimidin-4-yl)sulfanylacetyl]piperidine-2-carboxylic acid
@<TRIPOS>ATOM
      1 C1          6.1368    6.3128    3.6893 C.ar      1 <0>        -0.0994
      2 C2          5.2829    5.3717    3.1427 C.ar      1 <0>        -0.0962
      3 C3          4.4830    4.6027    3.9631 C.ar      1 <0>        -0.0840
      4 C4          4.5364    4.7761    5.3455 C.ar      1 <0>        -0.0576
      5 C5          5.3948    5.7302    5.8904 C.ar      1 <0>        -0.1003
      6 C6          6.1944    6.4890    5.0603 C.ar      1 <0>        -0.1187
      7 C7          3.6794    3.9537    6.2321 C.2       1 <0>        -0.0357
      8 C8          2.7875    4.5389    7.0658 C.2       1 <0>        -0.1513
      9 S1          2.0203    3.1572    7.8904 S.3       1 <0>         0.1056
     10 C9          2.9115    1.8360    7.1132 C.ar      1 <0>         0.1347
     11 C10         3.7815    2.4982    6.2231 C.ar      1 <0>        -0.1775
     12 C11         4.6252    1.6533    5.4526 C.ar      1 <0>         0.1893
     13 N1          4.5453    0.3410    5.6123 N.ar      1 <0>        -0.5388
     14 C12         3.7046   -0.2123    6.4671 C.ar      1 <0>         0.3336
     15 N2          2.8971    0.5204    7.2093 N.ar      1 <0>        -0.4985
     16 S2          5.7644    2.3433    4.2990 S.3       1 <0>         0.1127
     17 C13         6.5190    0.8282    3.6578 C.3       1 <0>        -0.1756
     18 C14         7.5567    1.1824    2.6240 C.2       1 <0>         0.5074
     19 O1          7.7656    2.3447    2.3479 O.2       1 <0>        -0.4520
     20 N3          8.2527    0.2075    2.0063 N.am      1 <0>        -0.5949
     21 C15         7.9487   -1.2069    2.2628 C.3       1 <0>         0.1065
     22 C16         7.6979   -1.9080    0.9239 C.3       1 <0>        -0.1322
     23 C17         8.8972   -1.6802    0.0009 C.3       1 <0>        -0.1176
     24 C18         9.0633   -0.1818   -0.2622 C.3       1 <0>        -0.1179
     25 C19         9.3258    0.5389    1.0590 C.3       1 <0>         0.1002
     26 H1         10.2842    0.2149    1.4646 H         1 <0>         0.0663
     27 C20         9.3504    2.0273    0.8241 C.2       1 <0>         0.4880
     28 O2          8.4146    2.5695    0.2857 O.co2     1 <0>        -0.6178
     29 H2          6.7612    6.9121    3.0433 H         1 <0>         0.1252
     30 H3          5.2424    5.2383    2.0717 H         1 <0>         0.1294
     31 H4          3.8167    3.8683    3.5352 H         1 <0>         0.1234
     32 H5          5.4371    5.8720    6.9602 H         1 <0>         0.1207
     33 H6          6.8633    7.2250    5.4814 H         1 <0>         0.1234
     34 H7          2.5859    5.5918    7.1969 H         1 <0>         0.2000
     35 H8          3.6774   -1.2880    6.5602 H         1 <0>         0.2083
     36 H9          6.9915    0.2836    4.4752 H         1 <0>         0.1138
     37 H10         5.7502    0.2042    3.2020 H         1 <0>         0.1146
     38 H11         8.7926   -1.6762    2.7685 H         1 <0>         0.0640
     39 H12         7.0597   -1.2819    2.8890 H         1 <0>         0.0790
     40 H13         7.5661   -2.9769    1.0920 H         1 <0>         0.0690
     41 H14         6.7996   -1.4989    0.4617 H         1 <0>         0.0655
     42 H15         9.7990   -2.0678    0.4749 H         1 <0>         0.0602
     43 H16         8.7320   -2.1984   -0.9437 H         1 <0>         0.0602
     44 H17         9.9032   -0.0220   -0.9382 H         1 <0>         0.0678
     45 H18         8.1526    0.2114   -0.7140 H         1 <0>         0.0710
     46 O3         10.4121    2.7506    1.2132 O.co2     1 <0>        -0.7737
@<TRIPOS>BOND
     1    1    6 ar
     2    1    2 ar
     3    1   29 1
     4    2    3 ar
     5    2   30 1
     6    3    4 ar
     7    3   31 1
     8    4    5 ar
     9    4    7 1
    10    5    6 ar
    11    5   32 1
    12    6   33 1
    13    7   11 1
    14    7    8 2
    15    8    9 1
    16    8   34 1
    17    9   10 1
    18   10   15 ar
    19   10   11 ar
    20   11   12 ar
    21   12   13 ar
    22   12   16 1
    23   13   14 ar
    24   14   15 ar
    25   14   35 1
    26   16   17 1
    27   17   18 1
    28   17   36 1
    29   17   37 1
    30   18   19 2
    31   18   20 am
    32   20   25 1
    33   20   21 1
    34   21   22 1
    35   21   38 1
    36   21   39 1
    37   22   23 1
    38   22   40 1
    39   22   41 1
    40   23   24 1
    41   23   42 1
    42   23   43 1
    43   24   25 1
    44   24   44 1
    45   24   45 1
    46   25   26 1
    47   25   27 1
    48   27   28 2
    49   27   46 1
@<TRIPOS>MOLECULE
ZINC48555395
   50    51     0     0     0
SMALL
USER_CHARGES

@<TRIPOS>ATOM
      1 C1         -0.0187    1.5258    0.0104 C.3       1 <0>        -0.1551
      2 C2          0.0021   -0.0041    0.0020 C.3       1 <0>        -0.1157
      3 C3          0.7182   -0.4975   -1.2568 C.3       1 <0>        -0.1128
      4 C4          0.7390   -2.0273   -1.2652 C.3       1 <0>        -0.6118
      5 S1          1.5880   -2.6123   -2.7577 S.o2      1 <0>         2.5674
      6 O1          0.8185   -2.3031   -3.9115 O.2       1 <0>        -1.0049
      7 O2          2.9684   -2.2806   -2.6972 O.2       1 <0>        -1.0033
      8 N1          1.5454   -4.2644   -2.6516 N.2       1 <0>        -1.0685
      9 C5          2.0777   -4.9845   -3.5807 C.2       1 <0>         0.4963
     10 O3          2.6690   -4.3915   -4.6385 O.3       1 <0>        -0.7196
     11 C6          2.0389   -6.4879   -3.4842 C.3       1 <0>        -0.0642
     12 H1          2.9561   -6.9031   -3.9020 H         1 <0>         0.0800
     13 C7          0.8353   -7.0191   -4.2661 C.3       1 <0>        -0.1054
     14 C8          0.8136   -8.5477   -4.1960 C.3       1 <0>        -0.1324
     15 C9          0.6727   -8.9860   -2.7349 C.3       1 <0>         0.1058
     16 N2          1.7447   -8.3610   -1.9482 N.am      1 <0>        -0.6126
     17 C10         1.9126   -6.9029   -2.0150 C.3       1 <0>         0.1307
     18 C11         2.5590   -9.1111   -1.1796 C.2       1 <0>         0.5118
     19 O4          3.4402   -8.5832   -0.5348 O.2       1 <0>        -0.5329
     20 C12         2.3745  -10.6056   -1.1212 C.3       1 <0>        -0.1027
     21 C13         3.4046  -11.2032   -0.1979 C.ar      1 <0>        -0.0622
     22 C14         4.6313  -11.6010   -0.6958 C.ar      1 <0>        -0.1047
     23 C15         5.5763  -12.1492    0.1512 C.ar      1 <0>        -0.1199
     24 C16         5.2947  -12.2993    1.4962 C.ar      1 <0>        -0.1238
     25 C17         4.0684  -11.9007    1.9943 C.ar      1 <0>        -0.1208
     26 C18         3.1250  -11.3485    1.1481 C.ar      1 <0>        -0.1054
     27 H2          1.0039    1.9031    0.0027 H         1 <0>         0.0550
     28 H3         -0.5459    1.8868   -0.8726 H         1 <0>         0.0549
     29 H4         -0.5289    1.8773    0.9072 H         1 <0>         0.0530
     30 H5          0.5293   -0.3651    0.8851 H         1 <0>         0.0636
     31 H6         -1.0205   -0.3814    0.0098 H         1 <0>         0.0632
     32 H7          0.1910   -0.1364   -2.1398 H         1 <0>         0.0725
     33 H8          1.7408   -0.1202   -1.2645 H         1 <0>         0.0728
     34 H9          1.2661   -2.3884   -0.3821 H         1 <0>         0.1213
     35 H10        -0.2836   -2.4046   -1.2575 H         1 <0>         0.1206
     36 H11        -0.0829   -6.6226   -3.8327 H         1 <0>         0.0696
     37 H12         0.9108   -6.7043   -5.3069 H         1 <0>         0.0701
     38 H13        -0.0304   -8.9264   -4.7725 H         1 <0>         0.0746
     39 H14         1.7423   -8.9439   -4.6067 H         1 <0>         0.0661
     40 H15        -0.2962   -8.6679   -2.3499 H         1 <0>         0.0712
     41 H16         0.7560  -10.0708   -2.6692 H         1 <0>         0.0799
     42 H17         2.8140   -6.6132   -1.4747 H         1 <0>         0.0903
     43 H18         1.0451   -6.4149   -1.5707 H         1 <0>         0.0898
     44 H19         1.3761  -10.8341   -0.7483 H         1 <0>         0.1005
     45 H20         2.4943  -11.0257   -2.1198 H         1 <0>         0.1011
     46 H21         4.8513  -11.4838   -1.7467 H         1 <0>         0.1196
     47 H22         6.5344  -12.4606   -0.2380 H         1 <0>         0.1201
     48 H23         6.0328  -12.7282    2.1578 H         1 <0>         0.1185
     49 H24         3.8483  -12.0182    3.0451 H         1 <0>         0.1197
     50 H25         2.1683  -11.0337    1.5379 H         1 <0>         0.1190
@<TRIPOS>BOND
     1    1    2 1
     2    1   27 1
     3    1   28 1
     4    1   29 1
     5    2    3 1
     6    2   30 1
     7    2   31 1
     8    3    4 1
     9    3   32 1
    10    3   33 1
    11    4    5 1
    12    4   34 1
    13    4   35 1
    14    5    6 2
    15    5    7 2
    16    5    8 1
    17    8    9 2
    18    9   10 1
    19    9   11 1
    20   11   12 1
    21   11   17 1
    22   11   13 1
    23   13   14 1
    24   13   36 1
    25   13   37 1
    26   14   15 1
    27   14   38 1
    28   14   39 1
    29   15   16 1
    30   15   40 1
    31   15   41 1
    32   16   17 1
    33   16   18 am
    34   17   42 1
    35   17   43 1
    36   18   19 2
    37   18   20 1
    38   20   21 1
    39   20   44 1
    40   20   45 1
    41   21   26 ar
    42   21   22 ar
    43   22   23 ar
    44   22   46 1
    45   23   24 ar
    46   23   47 1
    47   24   25 ar
    48   24   48 1
    49   25   26 ar
    50   25   49 1
    51   26   50 1
@<TRIPOS>MOLECULE
ZINC13322727
   45    47     0     0     0
SMALL
USER_CHARGES

@<TRIPOS>ATOM
      1 C1         -0.0187    1.5258    0.0104 C.3       1 <0>        -0.1463
      2 C2          0.0021   -0.0041    0.0020 C.3       1 <0>        -0.6350
      3 S1          0.8511   -0.5891   -1.4904 S.o2      1 <0>         2.6050
      4 O1          0.0816   -0.2798   -2.6443 O.2       1 <0>        -0.9507
      5 O2          2.2316   -0.2574   -1.4300 O.2       1 <0>        -0.9561
      6 N1          0.8085   -2.2411   -1.3844 N.pl3     1 <0>        -0.9988
      7 C3          1.8870   -2.9760   -0.7094 C.3       1 <0>         0.1161
      8 C4          2.4272   -4.0456   -1.6637 C.3       1 <0>        -0.1291
      9 C5          1.2711   -4.9263   -2.1436 C.3       1 <0>        -0.1065
     10 C6          0.2561   -4.0692   -2.9034 C.3       1 <0>         0.0083
     11 H1          0.7472   -3.5875   -3.7489 H         1 <0>         0.0800
     12 C7         -0.3115   -2.9994   -1.9582 C.3       1 <0>         0.1285
     13 C8         -0.8652   -4.9428   -3.4039 C.2       1 <0>         0.1219
     14 N2         -1.6692   -5.6617   -2.6728 N.2       1 <0>        -0.2909
     15 N3         -2.5090   -6.2833   -3.4212 N.2       1 <0>        -0.3460
     16 C9         -2.2841   -5.9920   -4.6814 C.2       1 <0>         0.3756
     17 S2         -3.1765   -6.6015   -6.0731 S.3       1 <0>        -0.8106
     18 N4         -1.2311   -5.1233   -4.7092 N.pl3     1 <0>        -0.4843
     19 C10        -0.6185   -4.5134   -5.8920 C.3       1 <0>         0.1586
     20 C11         0.4896   -5.4007   -6.3978 C.ar      1 <0>        -0.1130
     21 C12         1.7777   -5.2353   -5.9238 C.ar      1 <0>        -0.0767
     22 C13         2.7946   -6.0487   -6.3865 C.ar      1 <0>        -0.1628
     23 C14         2.5230   -7.0296   -7.3252 C.ar      1 <0>         0.0976
     24 C15         1.2326   -7.1943   -7.7992 C.ar      1 <0>        -0.1574
     25 C16         0.2163   -6.3832   -7.3311 C.ar      1 <0>        -0.0494
     26 F1          3.5164   -7.8250   -7.7786 F         1 <0>        -0.1446
     27 H2          1.0039    1.9031    0.0027 H         1 <0>         0.0707
     28 H3         -0.5459    1.8868   -0.8726 H         1 <0>         0.0720
     29 H4         -0.5289    1.8773    0.9072 H         1 <0>         0.0806
     30 H5          0.5293   -0.3651    0.8851 H         1 <0>         0.1302
     31 H6         -1.0205   -0.3814    0.0098 H         1 <0>         0.1324
     32 H7          2.6877   -2.2863   -0.4426 H         1 <0>         0.0923
     33 H8          1.4972   -3.4522    0.1903 H         1 <0>         0.0720
     34 H9          2.8978   -3.5642   -2.5209 H         1 <0>         0.0678
     35 H10         3.1611   -4.6606   -1.1430 H         1 <0>         0.0784
     36 H11         1.6564   -5.7035   -2.8035 H         1 <0>         0.0668
     37 H12         0.7853   -5.3880   -1.2840 H         1 <0>         0.0780
     38 H13        -0.8769   -3.4775   -1.1583 H         1 <0>         0.0854
     39 H14        -0.9618   -2.3252   -2.5156 H         1 <0>         0.0937
     40 H15        -1.3720   -4.3936   -6.6705 H         1 <0>         0.1099
     41 H16        -0.2107   -3.5377   -5.6278 H         1 <0>         0.0890
     42 H17         1.9894   -4.4699   -5.1918 H         1 <0>         0.1277
     43 H18         3.8009   -5.9190   -6.0163 H         1 <0>         0.1321
     44 H19         1.0196   -7.9589   -8.5317 H         1 <0>         0.1345
     45 H20        -0.7912   -6.5144   -7.6974 H         1 <0>         0.1532
@<TRIPOS>BOND
     1    1    2 1
     2    1   27 1
     3    1   28 1
     4    1   29 1
     5    2    3 1
     6    2   30 1
     7    2   31 1
     8    3    4 2
     9    3    5 2
    10    3    6 1
    11    6   12 1
    12    6    7 1
    13    7    8 1
    14    7   32 1
    15    7   33 1
    16    8    9 1
    17    8   34 1
    18    8   35 1
    19    9   10 1
    20    9   36 1
    21    9   37 1
    22   10   11 1
    23   10   12 1
    24   10   13 1
    25   12   38 1
    26   12   39 1
    27   13   18 1
    28   13   14 2
    29   14   15 1
    30   15   16 2
    31   16   17 1
    32   16   18 1
    33   18   19 1
    34   19   20 1
    35   19   40 1
    36   19   41 1
    37   20   25 ar
    38   20   21 ar
    39   21   22 ar
    40   21   42 1
    41   22   23 ar
    42   22   43 1
    43   23   24 ar
    44   23   26 1
    45   24   25 ar
    46   24   44 1
    47   25   45 1
@<TRIPOS>MOLECULE
ZINC63488041
   45    46     0     0     0
SMALL
USER_CHARGES

@<TRIPOS>ATOM
      1 C1         -0.0178    1.4608    0.0101 C.3       1 <0>         0.0797
      2 N1          0.0021   -0.0041    0.0020 N.am      1 <0>        -0.6233
      3 C2          0.0241   -0.7433    1.2666 C.3       1 <0>         0.1264
      4 C3         -1.4105   -1.0203    1.7205 C.3       1 <0>        -0.0999
      5 C4         -1.3878   -1.7807    3.0214 C.ar      1 <0>        -0.0322
      6 C5         -1.3631   -3.1669    3.0329 C.ar      1 <0>        -0.1660
      7 C6         -1.3428   -3.8302    4.2452 C.ar      1 <0>         0.0991
      8 N2         -1.3472   -3.1599    5.3809 N.ar      1 <0>        -0.4918
      9 C7         -1.3705   -1.8417    5.4080 C.ar      1 <0>         0.0969
     10 C8         -1.3854   -1.1106    4.2353 C.ar      1 <0>        -0.1717
     11 C9          0.0001   -0.6716   -1.1688 C.2       1 <0>         0.5583
     12 O1          0.0166   -1.8888   -1.1755 O.2       1 <0>        -0.5590
     13 C10        -0.0219    0.0661   -2.4308 C.2       1 <0>        -0.3017
     14 C11        -0.0239   -0.6028   -3.6040 C.2       1 <0>         0.0530
     15 C12        -0.0461    0.1386   -4.8723 C.ar      1 <0>        -0.2183
     16 C13        -0.0592    1.5388   -4.8669 C.ar      1 <0>        -0.0410
     17 C14        -0.0794    2.2267   -6.0526 C.ar      1 <0>        -0.1956
     18 C15        -0.0867    1.5350   -7.2611 C.ar      1 <0>         0.3112
     19 C16        -0.0742    0.1427   -7.2710 C.ar      1 <0>        -0.2682
     20 C17        -0.0482   -0.5530   -6.0899 C.ar      1 <0>        -0.0247
     21 N3         -0.1072    2.2370   -8.4620 N.2       1 <0>        -1.0894
     22 S1         -0.1160    1.4167   -9.9005 S.o2      1 <0>         2.5280
     23 O2          1.1249    0.7251   -9.9312 O.2       1 <0>        -1.0258
     24 O3         -1.3441    0.7018   -9.9027 O.2       1 <0>        -1.0258
     25 C18        -0.1429    2.7086  -11.1737 C.3       1 <0>        -0.6372
     26 H1          1.0048    1.8381    0.0023 H         1 <0>         0.0553
     27 H2         -0.5450    1.8219   -0.8730 H         1 <0>         0.0792
     28 H3         -0.5280    1.8123    0.9069 H         1 <0>         0.0656
     29 H4          0.5496   -1.6879    1.1262 H         1 <0>         0.0845
     30 H5          0.5371   -0.1514    2.0246 H         1 <0>         0.0743
     31 H6         -1.9359   -0.0757    1.8610 H         1 <0>         0.0778
     32 H7         -1.9235   -1.6122    0.9626 H         1 <0>         0.0836
     33 H8         -1.3600   -3.7215    2.1061 H         1 <0>         0.1374
     34 H9         -1.3235   -4.9098    4.2627 H         1 <0>         0.1554
     35 H10        -1.3737   -1.3274    6.3577 H         1 <0>         0.1541
     36 H11        -1.3995   -0.0311    4.2640 H         1 <0>         0.1337
     37 H12        -0.0366    1.1460   -2.4249 H         1 <0>         0.1252
     38 H13        -0.0093   -1.6826   -3.6099 H         1 <0>         0.1188
     39 H14        -0.0539    2.0761   -3.9300 H         1 <0>         0.1100
     40 H15        -0.0899    3.3067   -6.0494 H         1 <0>         0.1149
     41 H16        -0.0807   -0.3899   -8.2105 H         1 <0>         0.1057
     42 H17        -0.0340   -1.6328   -6.0985 H         1 <0>         0.1076
     43 H18         0.7425    3.3365  -11.0729 H         1 <0>         0.1162
     44 H19        -0.1499    2.2461  -12.1606 H         1 <0>         0.1033
     45 H20        -1.0373    3.3197  -11.0524 H         1 <0>         0.1162
@<TRIPOS>BOND
     1    1    2 1
     2    1   26 1
     3    1   27 1
     4    1   28 1
     5    2    3 1
     6    2   11 am
     7    3    4 1
     8    3   29 1
     9    3   30 1
    10    4    5 1
    11    4   31 1
    12    4   32 1
    13    5   10 ar
    14    5    6 ar
    15    6    7 ar
    16    6   33 1
    17    7    8 ar
    18    7   34 1
    19    8    9 ar
    20    9   10 ar
    21    9   35 1
    22   10   36 1
    23   11   12 2
    24   11   13 1
    25   13   14 2
    26   13   37 1
    27   14   15 1
    28   14   38 1
    29   15   20 ar
    30   15   16 ar
    31   16   17 ar
    32   16   39 1
    33   17   18 ar
    34   17   40 1
    35   18   19 ar
    36   18   21 1
    37   19   20 ar
    38   19   41 1
    39   20   42 1
    40   21   22 1
    41   22   23 2
    42   22   24 2
    43   22   25 1
    44   25   43 1
    45   25   44 1
    46   25   45 1
@<TRIPOS>MOLECULE
ZINC66741774
   36    36     0     0     0
SMALL
USER_CHARGES

@<TRIPOS>ATOM
      1 C1         -0.0187    1.5258    0.0104 C.3       1 <0>        -0.1595
      2 C2          0.0021   -0.0041    0.0020 C.3       1 <0>         0.1214
      3 H1          0.5123   -0.3556   -0.8948 H         1 <0>         0.0764
      4 C3         -1.4117   -0.5257    0.0127 C.2       1 <0>         0.4916
      5 O1         -1.9983   -0.8610    1.1806 O.3       1 <0>        -0.7002
      6 N1         -2.0614   -0.6517   -1.0951 N.2       1 <0>        -1.0641
      7 S1         -3.6150   -1.2249   -1.0833 S.o2      1 <0>         2.6540
      8 O2         -3.5458   -2.5767   -0.6510 O.2       1 <0>        -1.0002
      9 O3         -4.4024   -0.2501   -0.4133 O.2       1 <0>        -1.0026
     10 C4         -4.1705   -1.2585   -2.7551 C.ar      1 <0>        -0.6607
     11 C5         -4.7951   -0.1504   -3.2973 C.ar      1 <0>         0.0327
     12 C6         -5.2322   -0.1740   -4.6076 C.ar      1 <0>        -0.2267
     13 C7         -5.0437   -1.3105   -5.3802 C.ar      1 <0>         0.1895
     14 C8         -4.4161   -2.4216   -4.8343 C.ar      1 <0>        -0.1482
     15 C9         -3.9760   -2.3908   -3.5241 C.ar      1 <0>         0.0452
     16 Br1        -4.1574   -3.9734   -5.8834 Br        1 <0>        -0.0387
     17 O4         -5.4732   -1.3363   -6.6695 O.3       1 <0>        -0.3021
     18 C10        -6.1110   -0.1572   -7.1644 C.3       1 <0>         0.0230
     19 O5          0.6932   -0.4774    1.1597 O.3       1 <0>        -0.3565
     20 C11         2.0985   -0.6511    0.9672 C.3       1 <0>         0.0811
     21 C12         2.7226   -1.1505    2.2448 C.2       1 <0>        -0.1376
     22 C13         3.5875   -2.1338    2.2105 C.2       1 <0>        -0.1931
     23 H2          1.0039    1.9031    0.0027 H         1 <0>         0.0540
     24 H3         -0.5459    1.8868   -0.8726 H         1 <0>         0.0723
     25 H4         -0.5289    1.8773    0.9072 H         1 <0>         0.0646
     26 H5         -4.9418    0.7344   -2.6956 H         1 <0>         0.1480
     27 H6         -5.7206    0.6917   -5.0300 H         1 <0>         0.1419
     28 H7         -3.4839   -3.2534   -3.0997 H         1 <0>         0.1540
     29 H8         -6.9961    0.0560   -6.5650 H         1 <0>         0.0593
     30 H9         -5.4194    0.6831   -7.1028 H         1 <0>         0.0601
     31 H10        -6.4040   -0.3112   -8.2029 H         1 <0>         0.1031
     32 H11         2.2694   -1.3764    0.1716 H         1 <0>         0.0515
     33 H12         2.5481    0.3029    0.6919 H         1 <0>         0.0548
     34 H13         2.4568   -0.6977    3.1886 H         1 <0>         0.1154
     35 H14         3.8533   -2.5865    1.2667 H         1 <0>         0.0958
     36 H15         4.0348   -2.4916    3.1261 H         1 <0>         0.1003
@<TRIPOS>BOND
     1    1    2 1
     2    1   23 1
     3    1   24 1
     4    1   25 1
     5    2    3 1
     6    2    4 1
     7    2   19 1
     8    4    5 1
     9    4    6 2
    10    6    7 1
    11    7    8 2
    12    7    9 2
    13    7   10 1
    14   10   15 ar
    15   10   11 ar
    16   11   12 ar
    17   11   26 1
    18   12   13 ar
    19   12   27 1
    20   13   14 ar
    21   13   17 1
    22   14   15 ar
    23   14   16 1
    24   15   28 1
    25   17   18 1
    26   18   29 1
    27   18   30 1
    28   18   31 1
    29   19   20 1
    30   20   21 1
    31   20   32 1
    32   20   33 1
    33   21   22 2
    34   21   34 1
    35   22   35 1
    36   22   36 1
@<TRIPOS>MOLECULE
ZINC13310236
   50    52     0     0     0
SMALL
USER_CHARGES
2-[(1R)-2-(4-benzyl-1-piperidyl)-1-methyl-2-oxo-ethyl]sulfanylpyridine-3-carboxylic acid
@<TRIPOS>ATOM
      1 C1         -1.0730    4.1610   -1.4073 C.3       1 <0>        -0.1317
      2 C2         -1.1906    3.6429    0.0275 C.3       1 <0>        -0.1748
      3 H1         -0.3469    4.0052    0.6149 H         1 <0>         0.1077
      4 C3         -1.1868    2.1359    0.0193 C.2       1 <0>         0.5414
      5 O1         -2.2355    1.5268    0.0210 O.2       1 <0>        -0.5229
      6 N1         -0.0178    1.4650    0.0101 N.am      1 <0>        -0.6118
      7 C4          1.2607    2.1889    0.0018 C.3       1 <0>         0.1039
      8 C5          2.1025    1.6893   -1.1766 C.3       1 <0>        -0.1309
      9 C6          2.2423    0.1678   -1.0896 C.3       1 <0>        -0.0799
     10 C7          0.8580   -0.4791   -1.1763 C.3       1 <0>        -0.1281
     11 C8          0.0021   -0.0041    0.0020 C.3       1 <0>         0.1117
     12 C9          3.1113   -0.3309   -2.2459 C.3       1 <0>        -0.0774
     13 C10         4.5099    0.2090   -2.0923 C.ar      1 <0>        -0.0762
     14 C11         4.8513    1.4180   -2.6690 C.ar      1 <0>        -0.1164
     15 C12         6.1330    1.9152   -2.5244 C.ar      1 <0>        -0.1182
     16 C13         7.0759    1.1989   -1.8112 C.ar      1 <0>        -0.1271
     17 C14         6.7358   -0.0124   -1.2385 C.ar      1 <0>        -0.1190
     18 C15         5.4529   -0.5076   -1.3794 C.ar      1 <0>        -0.1188
     19 S1         -2.7353    4.2383    0.7593 S.3       1 <0>         0.1304
     20 C16        -2.4150    5.9707    0.7827 C.ar      1 <0>         0.1108
     21 C17        -3.3867    6.8556    1.2848 C.ar      1 <0>        -0.1514
     22 C18        -3.1062    8.2272    1.2979 C.ar      1 <0>        -0.0206
     23 C19        -1.8860    8.6534    0.8044 C.ar      1 <0>        -0.2020
     24 C20        -0.9829    7.7227    0.3216 C.ar      1 <0>         0.1036
     25 N2         -1.2624    6.4343    0.3223 N.ar      1 <0>        -0.5023
     26 C21        -4.6723    6.3481    1.7926 C.2       1 <0>         0.4885
     27 O2         -4.9020    5.1548    1.7804 O.co2     1 <0>        -0.5914
     28 H2         -0.1428    3.8024   -1.8480 H         1 <0>         0.0507
     29 H3         -1.9167    3.7987   -1.9947 H         1 <0>         0.0601
     30 H4         -1.0758    5.2510   -1.4013 H         1 <0>         0.0887
     31 H5          1.0750    3.2573   -0.1088 H         1 <0>         0.0924
     32 H6          1.7919    2.0030    0.9352 H         1 <0>         0.0670
     33 H7          3.0905    2.1482   -1.1383 H         1 <0>         0.0784
     34 H8          1.6127    1.9568   -2.1129 H         1 <0>         0.0681
     35 H9          2.7097   -0.1004   -0.1422 H         1 <0>         0.0737
     36 H10         0.9602   -1.5636   -1.1379 H         1 <0>         0.0744
     37 H11         0.3799   -0.1912   -2.1126 H         1 <0>         0.0682
     38 H12         0.4307   -0.3688    0.9355 H         1 <0>         0.0650
     39 H13        -1.0143   -0.3827   -0.1059 H         1 <0>         0.0940
     40 H14         3.1392   -1.4205   -2.2358 H         1 <0>         0.0730
     41 H15         2.6908    0.0130   -3.1910 H         1 <0>         0.0728
     42 H16         4.1158    1.9756   -3.2298 H         1 <0>         0.1216
     43 H17         6.3987    2.8617   -2.9716 H         1 <0>         0.1206
     44 H18         8.0782    1.5858   -1.7010 H         1 <0>         0.1190
     45 H19         7.4724   -0.5721   -0.6812 H         1 <0>         0.1195
     46 H20         5.1872   -1.4541   -0.9323 H         1 <0>         0.1197
     47 H21        -3.8265    8.9356    1.6798 H         1 <0>         0.1433
     48 H22        -1.6403    9.7050    0.7957 H         1 <0>         0.1286
     49 H23        -0.0312    8.0582   -0.0634 H         1 <0>         0.1495
     50 O3         -5.5943    7.2070    2.2708 O.co2     1 <0>        -0.7454
@<TRIPOS>BOND
     1    1    2 1
     2    1   28 1
     3    1   29 1
     4    1   30 1
     5    2    3 1
     6    2    4 1
     7    2   19 1
     8    4    5 2
     9    4    6 am
    10    6   11 1
    11    6    7 1
    12    7    8 1
    13    7   31 1
    14    7   32 1
    15    8    9 1
    16    8   33 1
    17    8   34 1
    18    9   10 1
    19    9   12 1
    20    9   35 1
    21   10   11 1
    22   10   36 1
    23   10   37 1
    24   11   38 1
    25   11   39 1
    26   12   13 1
    27   12   40 1
    28   12   41 1
    29   13   18 ar
    30   13   14 ar
    31   14   15 ar
    32   14   42 1
    33   15   16 ar
    34   15   43 1
    35   16   17 ar
    36   16   44 1
    37   17   18 ar
    38   17   45 1
    39   18   46 1
    40   19   20 1
    41   20   25 ar
    42   20   21 ar
    43   21   22 ar
    44   21   26 1
    45   22   23 ar
    46   22   47 1
    47   23   24 ar
    48   23   48 1
    49   24   25 ar
    50   24   49 1
    51   26   27 2
    52   26   50 1
@<TRIPOS>MOLECULE
ZINC37827771
   42    42     0     0     0
SMALL
USER_CHARGES

@<TRIPOS>ATOM
      1 C1          1.5874    1.7589    1.1973 C.3       1 <0>        -0.1518
      2 C2          1.9643    0.2903    0.9923 C.3       1 <0>        -0.0899
      3 C3          0.7521   -0.5939    1.2920 C.3       1 <0>        -0.1161
      4 C4         -0.3941   -0.2250    0.3480 C.3       1 <0>        -0.0993
      5 C5          0.0487   -0.4405   -1.1006 C.3       1 <0>        -0.1514
      6 C6          1.1290   -2.0625    1.0870 C.3       1 <0>        -0.1065
      7 C7          2.1925   -2.4517    2.0812 C.2       1 <0>         0.5031
      8 O1          2.5560   -1.6573    2.9225 O.2       1 <0>        -0.4738
      9 N1          2.7398   -3.6825    2.0355 N.am      1 <0>        -0.6240
     10 C8          2.3007   -4.6421    1.0193 C.3       1 <0>         0.1074
     11 C9          3.1659   -4.4901   -0.2333 C.3       1 <0>        -0.1703
     12 C10         3.7737   -4.0608    3.0020 C.3       1 <0>         0.1978
     13 C11         3.1253   -4.6693    4.2188 C.2       1 <0>        -0.1460
     14 C12         2.8279   -5.9678    4.4677 C.2       1 <0>        -0.1619
     15 C13         2.2263   -6.2999    5.6674 C.2       1 <0>        -0.1157
     16 C14         1.9517   -5.3157    6.5595 C.2       1 <0>        -0.1961
     17 S1          2.5572   -3.8674    5.7092 S.3       1 <0>         0.1669
     18 Br1         1.1442   -5.4452    8.2644 Br        1 <0>         0.0259
     19 C15         0.3159   -0.3816    2.7188 C.2       1 <0>         0.5152
     20 O2          0.9864    0.3118    3.4644 O.co2     1 <0>        -0.6689
     21 O3         -0.7074   -0.9034    3.1274 O.co2     1 <0>        -0.7144
     22 H1          1.2719    1.9125    2.2293 H         1 <0>         0.0877
     23 H2          2.4509    2.3889    0.9838 H         1 <0>         0.0284
     24 H3          0.7708    2.0218    0.5248 H         1 <0>         0.0340
     25 H4          2.2797    0.1368   -0.0397 H         1 <0>         0.0278
     26 H5          2.7808    0.0275    1.6648 H         1 <0>         0.0723
     27 H6         -1.2576   -0.8549    0.5615 H         1 <0>         0.0604
     28 H7         -0.6626    0.8213    0.4941 H         1 <0>         0.0578
     29 H8          0.9123    0.1895   -1.3140 H         1 <0>         0.0526
     30 H9          0.3172   -1.4867   -1.2466 H         1 <0>         0.0475
     31 H10        -0.7678   -0.1776   -1.7730 H         1 <0>         0.0423
     32 H11         0.2482   -2.6876    1.2338 H         1 <0>         0.0862
     33 H12         1.5091   -2.2022    0.0750 H         1 <0>         0.0751
     34 H13         2.4003   -5.6551    1.4090 H         1 <0>         0.0731
     35 H14         1.2578   -4.4512    0.7659 H         1 <0>         0.0801
     36 H15         4.2088   -4.6809    0.0201 H         1 <0>         0.0560
     37 H16         2.8392   -5.2040   -0.9894 H         1 <0>         0.0638
     38 H17         3.0662   -3.4770   -0.6231 H         1 <0>         0.0599
     39 H18         4.4474   -4.7873    2.5477 H         1 <0>         0.0966
     40 H19         4.3381   -3.1757    3.2954 H         1 <0>         0.0986
     41 H20         3.0570   -6.7318    3.7396 H         1 <0>         0.1350
     42 H21         1.9784   -7.3271    5.8907 H         1 <0>         0.1343
@<TRIPOS>BOND
     1    1    2 1
     2    1   22 1
     3    1   23 1
     4    1   24 1
     5    2    3 1
     6    2   25 1
     7    2   26 1
     8    3    4 1
     9    3    6 1
    10    3   19 1
    11    4    5 1
    12    4   27 1
    13    4   28 1
    14    5   29 1
    15    5   30 1
    16    5   31 1
    17    6    7 1
    18    6   32 1
    19    6   33 1
    20    7    8 2
    21    7    9 am
    22    9   10 1
    23    9   12 1
    24   10   11 1
    25   10   34 1
    26   10   35 1
    27   11   36 1
    28   11   37 1
    29   11   38 1
    30   12   13 1
    31   12   39 1
    32   12   40 1
    33   13   17 1
    34   13   14 2
    35   14   15 1
    36   14   41 1
    37   15   16 2
    38   15   42 1
    39   16   17 1
    40   16   18 1
    41   19   20 2
    42   19   21 1
@<TRIPOS>MOLECULE
ZINC49263036
   36    36     0     0     0
SMALL
USER_CHARGES

@<TRIPOS>ATOM
      1 C1         -0.0187    1.5258    0.0104 C.3       1 <0>        -0.1522
      2 C2          0.0021   -0.0041    0.0020 C.3       1 <0>        -0.1224
      3 C3          0.7182   -0.4975   -1.2568 C.3       1 <0>        -0.1202
      4 C4          0.7390   -2.0273   -1.2652 C.3       1 <0>         0.0554
      5 O1          1.4078   -2.4882   -2.4409 O.3       1 <0>        -0.3781
      6 C5          1.4826   -3.9113   -2.5470 C.3       1 <0>         0.0761
      7 C6          2.2148   -4.2888   -3.8363 C.3       1 <0>        -0.6184
      8 S1          2.3097   -6.0953   -3.9710 S.o2      1 <0>         2.5079
      9 O2          3.1632   -6.6171   -2.9617 O.2       1 <0>        -0.9281
     10 O3          1.0132   -6.6396   -4.1760 O.2       1 <0>        -0.9381
     11 C7          3.1662   -6.3923   -5.4819 C.ar      1 <0>        -0.6660
     12 C8          2.4572   -6.5139   -6.6648 C.ar      1 <0>        -0.0312
     13 C9          3.1203   -6.7471   -7.8558 C.ar      1 <0>        -0.1302
     14 C10         4.4964   -6.8604   -7.8729 C.ar      1 <0>        -0.0126
     15 C11         5.2186   -6.7382   -6.6820 C.ar      1 <0>        -0.1323
     16 C12         4.5408   -6.4973   -5.4836 C.ar      1 <0>         0.0180
     17 C13         6.6884   -6.8578   -6.6910 C.2       1 <0>         0.5123
     18 O4          7.3171   -6.7504   -5.6475 O.co2     1 <0>        -0.6787
     19 O5          7.2786   -7.0644   -7.7420 O.co2     1 <0>        -0.6472
     20 Br1         5.4014   -7.1805   -9.5021 Br        1 <0>        -0.0113
     21 H1          1.0039    1.9031    0.0027 H         1 <0>         0.0556
     22 H2         -0.5459    1.8868   -0.8726 H         1 <0>         0.0550
     23 H3         -0.5289    1.8773    0.9072 H         1 <0>         0.0551
     24 H4          0.5293   -0.3651    0.8851 H         1 <0>         0.0640
     25 H5         -1.0205   -0.3814    0.0098 H         1 <0>         0.0632
     26 H6          0.1910   -0.1364   -2.1398 H         1 <0>         0.0712
     27 H7          1.7408   -0.1202   -1.2645 H         1 <0>         0.0723
     28 H8          1.2661   -2.3884   -0.3821 H         1 <0>         0.0530
     29 H9         -0.2836   -2.4046   -1.2575 H         1 <0>         0.0518
     30 H10         2.0252   -4.3114   -1.6905 H         1 <0>         0.0679
     31 H11         0.4755   -4.3276   -2.5658 H         1 <0>         0.0661
     32 H12         1.6722   -3.8886   -4.6928 H         1 <0>         0.1433
     33 H13         3.2219   -3.8724   -3.8174 H         1 <0>         0.1468
     34 H14         1.3808   -6.4266   -6.6573 H         1 <0>         0.1422
     35 H15         2.5605   -6.8412   -8.7746 H         1 <0>         0.1361
     36 H16         5.0924   -6.3978   -4.5604 H         1 <0>         0.1536
@<TRIPOS>BOND
     1    1    2 1
     2    1   21 1
     3    1   22 1
     4    1   23 1
     5    2    3 1
     6    2   24 1
     7    2   25 1
     8    3    4 1
     9    3   26 1
    10    3   27 1
    11    4    5 1
    12    4   28 1
    13    4   29 1
    14    5    6 1
    15    6    7 1
    16    6   30 1
    17    6   31 1
    18    7    8 1
    19    7   32 1
    20    7   33 1
    21    8    9 2
    22    8   10 2
    23    8   11 1
    24   11   16 ar
    25   11   12 ar
    26   12   13 ar
    27   12   34 1
    28   13   14 ar
    29   13   35 1
    30   14   15 ar
    31   14   20 1
    32   15   16 ar
    33   15   17 1
    34   16   36 1
    35   17   18 2
    36   17   19 1
@<TRIPOS>MOLECULE
ZINC64919572
   40    42     0     0     0
SMALL
USER_CHARGES

@<TRIPOS>ATOM
      1 C1         -0.0167    1.3782    0.0096 C.ar      1 <0>        -0.0693
      2 C2          1.1690    2.0869    0.0021 C.ar      1 <0>        -0.1780
      3 C3          2.3816    1.4097   -0.0131 C.ar      1 <0>         0.2895
      4 C4          2.3981    0.0207   -0.0206 C.ar      1 <0>        -0.2589
      5 C5          1.2085   -0.6827   -0.0131 C.ar      1 <0>         0.0292
      6 C6          0.0021   -0.0041    0.0020 C.ar      1 <0>        -0.2185
      7 Cl1         1.2272   -2.4186   -0.0231 Cl        1 <0>        -0.1070
      8 N1          3.5819    2.1238   -0.0212 N.2       1 <0>        -1.0832
      9 S1          5.0267    1.3147   -0.0392 S.o2      1 <0>         2.6315
     10 O1          5.1239    0.6294    1.2018 O.2       1 <0>        -1.0179
     11 O2          5.0997    0.6419   -1.2887 O.2       1 <0>        -1.0187
     12 C7          6.3037    2.5287   -0.0456 C.2       1 <0>        -0.6674
     13 C8          6.9364    3.1076    1.0042 C.2       1 <0>        -0.0403
     14 C9          7.9202    4.0470    0.7587 C.2       1 <0>        -0.1623
     15 C10         8.2231    4.3617   -0.5244 C.2       1 <0>        -0.1325
     16 S2          7.1054    3.3099   -1.4363 S.3       1 <0>         0.1616
     17 C11         9.2429    5.3410   -1.0460 C.3       1 <0>        -0.0498
     18 C12        10.5611    4.6373   -1.2414 C.2       1 <0>         0.5284
     19 O3         10.6625    3.4568   -0.9827 O.2       1 <0>        -0.5180
     20 N2         11.6273    5.3199   -1.7038 N.am      1 <0>        -0.6248
     21 C13        11.6458    6.7488   -2.0494 C.3       1 <0>         0.0960
     22 C14        13.0657    7.0795   -2.5554 C.3       1 <0>        -0.1319
     23 C15        13.6071    5.6953   -3.0006 C.3       1 <0>        -0.1342
     24 C16        12.9699    4.7589   -1.9407 C.3       1 <0>         0.1041
     25 H1         -0.9595    1.9047    0.0259 H         1 <0>         0.1153
     26 H2          1.1531    3.1668    0.0077 H         1 <0>         0.1184
     27 H3          3.3393   -0.5088   -0.0328 H         1 <0>         0.1078
     28 H4         -0.9264   -0.5556    0.0082 H         1 <0>         0.1129
     29 H5          6.6754    2.8390    2.0172 H         1 <0>         0.1437
     30 H6          8.4394    4.5234    1.5771 H         1 <0>         0.1337
     31 H7          8.9028    5.7468   -1.9988 H         1 <0>         0.1108
     32 H8          9.3670    6.1526   -0.3290 H         1 <0>         0.1164
     33 H9         10.9164    6.9499   -2.8341 H         1 <0>         0.0717
     34 H10        11.4182    7.3467   -1.1668 H         1 <0>         0.0710
     35 H11        13.0237    7.7671   -3.4001 H         1 <0>         0.0837
     36 H12        13.6754    7.4916   -1.7513 H         1 <0>         0.0774
     37 H13        13.2633    5.4458   -4.0044 H         1 <0>         0.0774
     38 H14        14.6951    5.6644   -2.9431 H         1 <0>         0.0846
     39 H15        13.5538    4.7709   -1.0204 H         1 <0>         0.0680
     40 H16        12.8935    3.7433   -2.3292 H         1 <0>         0.0795
@<TRIPOS>BOND
     1    1    6 ar
     2    1    2 ar
     3    1   25 1
     4    2    3 ar
     5    2   26 1
     6    3    4 ar
     7    3    8 1
     8    4    5 ar
     9    4   27 1
    10    5    6 ar
    11    5    7 1
    12    6   28 1
    13    8    9 1
    14    9   10 2
    15    9   11 2
    16    9   12 1
    17   12   16 1
    18   12   13 2
    19   13   14 1
    20   13   29 1
    21   14   15 2
    22   14   30 1
    23   15   16 1
    24   15   17 1
    25   17   18 1
    26   17   31 1
    27   17   32 1
    28   18   19 2
    29   18   20 am
    30   20   24 1
    31   20   21 1
    32   21   22 1
    33   21   33 1
    34   21   34 1
    35   22   23 1
    36   22   35 1
    37   22   36 1
    38   23   24 1
    39   23   37 1
    40   23   38 1
    41   24   39 1
    42   24   40 1
@<TRIPOS>MOLECULE
ZINC66715897
   45    46     0     0     0
SMALL
USER_CHARGES

@<TRIPOS>ATOM
      1 C1          0.0153    1.4642    0.0331 C.3       1 <0>        -0.1363
      2 C2          0.0177   -0.0645   -0.0311 C.3       1 <0>        -0.0685
      3 H1          0.5130   -0.3889   -0.9462 H         1 <0>         0.0775
      4 C3         -1.4236   -0.5776   -0.0217 C.3       1 <0>         0.1276
      5 N1         -2.1058   -0.1395   -1.2419 N.am      1 <0>        -0.6170
      6 C4         -2.0735   -0.9803   -2.4412 C.3       1 <0>         0.0755
      7 C5         -2.7632    1.0369   -1.2611 C.2       1 <0>         0.5629
      8 O1         -2.7036    1.7822   -0.3027 O.2       1 <0>        -0.5266
      9 C6         -3.5566    1.4208   -2.4476 C.ar      1 <0>        -0.0849
     10 C7         -4.2423    0.4470   -3.1765 C.ar      1 <0>        -0.1933
     11 C8         -4.9818    0.8073   -4.2839 C.ar      1 <0>        -0.0773
     12 C9         -5.0473    2.1325   -4.6764 C.ar      1 <0>        -0.0787
     13 C10        -4.3680    3.1100   -3.9564 C.ar      1 <0>         0.2863
     14 C11        -3.6272    2.7580   -2.8392 C.ar      1 <0>        -0.1863
     15 N2         -4.4365    4.4475   -4.3568 N.2       1 <0>        -1.0793
     16 S1         -3.7328    5.6262   -3.4307 S.o2      1 <0>         2.5238
     17 O2         -4.3701    5.5216   -2.1650 O.2       1 <0>        -1.0239
     18 O3         -2.3354    5.4020   -3.5589 O.2       1 <0>        -1.0262
     19 C12        -4.1915    7.1865   -4.2343 C.3       1 <0>        -0.6360
     20 Cl1        -5.9795    2.5766   -6.0719 Cl        1 <0>        -0.0871
     21 C13         0.7551   -0.6161    1.1618 C.ar      1 <0>        -0.0680
     22 C14         0.3060   -0.3409    2.4399 C.ar      1 <0>        -0.1124
     23 C15         0.9824   -0.8469    3.5341 C.ar      1 <0>        -0.1185
     24 C16         2.1076   -1.6286    3.3503 C.ar      1 <0>        -0.1288
     25 C17         2.5562   -1.9046    2.0722 C.ar      1 <0>        -0.1209
     26 C18         1.8773   -1.4021    0.9779 C.ar      1 <0>        -0.1176
     27 H2          1.0422    1.8298    0.0264 H         1 <0>         0.0461
     28 H3         -0.5180    1.8632   -0.8297 H         1 <0>         0.0647
     29 H4         -0.4799    1.7887    0.9483 H         1 <0>         0.0623
     30 H5         -1.4213   -1.6667    0.0222 H         1 <0>         0.0748
     31 H6         -1.9452   -0.1799    0.8489 H         1 <0>         0.0836
     32 H7         -2.8731   -1.7191   -2.3887 H         1 <0>         0.0562
     33 H8         -2.2117   -0.3577   -3.3252 H         1 <0>         0.0896
     34 H9         -1.1117   -1.4895   -2.5022 H         1 <0>         0.0609
     35 H10        -4.1934   -0.5884   -2.8735 H         1 <0>         0.1219
     36 H11        -5.5112    0.0525   -4.8464 H         1 <0>         0.1198
     37 H12        -3.1027    3.5159   -2.2762 H         1 <0>         0.1189
     38 H13        -5.2772    7.2812   -4.2507 H         1 <0>         0.1162
     39 H14        -3.7623    8.0208   -3.6794 H         1 <0>         0.1018
     40 H15        -3.8105    7.1949   -5.2555 H         1 <0>         0.1160
     41 H16        -0.5731    0.2698    2.5835 H         1 <0>         0.1244
     42 H17         0.6319   -0.6313    4.5327 H         1 <0>         0.1200
     43 H18         2.6364   -2.0233    4.2052 H         1 <0>         0.1178
     44 H19         3.4355   -2.5150    1.9286 H         1 <0>         0.1189
     45 H20         2.2256   -1.6208   -0.0208 H         1 <0>         0.1199
@<TRIPOS>BOND
     1    1    2 1
     2    1   27 1
     3    1   28 1
     4    1   29 1
     5    2    3 1
     6    2    4 1
     7    2   21 1
     8    4    5 1
     9    4   30 1
    10    4   31 1
    11    5    6 1
    12    5    7 am
    13    6   32 1
    14    6   33 1
    15    6   34 1
    16    7    8 2
    17    7    9 1
    18    9   14 ar
    19    9   10 ar
    20   10   11 ar
    21   10   35 1
    22   11   12 ar
    23   11   36 1
    24   12   13 ar
    25   12   20 1
    26   13   14 ar
    27   13   15 1
    28   14   37 1
    29   15   16 1
    30   16   17 2
    31   16   18 2
    32   16   19 1
    33   19   38 1
    34   19   39 1
    35   19   40 1
    36   21   26 ar
    37   21   22 ar
    38   22   23 ar
    39   22   41 1
    40   23   24 ar
    41   23   42 1
    42   24   25 ar
    43   24   43 1
    44   25   26 ar
    45   25   44 1
    46   26   45 1
@<TRIPOS>MOLECULE
ZINC20263220
   43    44     0     0     0
SMALL
USER_CHARGES
(3R)-1-(3-morpholinosulfonylpropanoyl)piperidine-3-carboxylic acid
@<TRIPOS>ATOM
      1 C1         -2.7307    1.5312   -4.7257 C.3       1 <0>        -0.1355
      2 C2         -2.0553    1.1833   -6.0542 C.3       1 <0>        -0.0986
      3 C3         -0.8688    0.2516   -5.7966 C.3       1 <0>        -0.1420
      4 H1         -1.2162   -0.6708   -5.3082 H         1 <0>         0.0725
      5 C4          0.1564    0.9713   -4.9072 C.3       1 <0>         0.1313
      6 N1         -0.5238    1.4325   -3.6893 N.am      1 <0>        -0.6050
      7 C5         -1.7298    2.2608   -3.8242 C.3       1 <0>         0.0997
      8 C6         -0.0473    1.1066   -2.4714 C.2       1 <0>         0.5192
      9 O1          0.9491    0.4223   -2.3733 O.2       1 <0>        -0.5405
     10 C7         -0.7527    1.5927   -1.2315 C.3       1 <0>        -0.1358
     11 C8         -0.0127    1.0858    0.0080 C.3       1 <0>        -0.6125
     12 S1         -0.8618    1.6708    1.5005 S.o2      1 <0>         2.6083
     13 O2         -0.7347    3.0815    1.6147 O.2       1 <0>        -0.9507
     14 O3         -2.1328    1.0462    1.6171 O.2       1 <0>        -0.9499
     15 N2          0.0249    1.0633    2.7603 N.pl3     1 <0>        -1.0035
     16 C9         -0.2878   -0.2518    3.3418 C.3       1 <0>         0.0839
     17 C10         1.0120   -1.0703    3.4020 C.3       1 <0>         0.0431
     18 O4          2.0178   -0.3044    4.0695 O.3       1 <0>        -0.3762
     19 C11         2.3713    0.9080    3.3994 C.3       1 <0>         0.0431
     20 C12         1.1447    1.8253    3.3353 C.3       1 <0>         0.0845
     21 C13        -0.2241   -0.1163   -7.1081 C.2       1 <0>         0.4685
     22 O5          0.9342    0.1614   -7.3107 O.co2     1 <0>        -0.6382
     23 O6         -0.9367   -0.7524   -8.0512 O.co2     1 <0>        -0.7665
     24 H2         -3.0653    0.6080   -4.2300 H         1 <0>         0.0657
     25 H3         -3.5977    2.1818   -4.9128 H         1 <0>         0.0740
     26 H4         -2.7790    0.6809   -6.7129 H         1 <0>         0.0749
     27 H5         -1.6988    2.1052   -6.5368 H         1 <0>         0.0582
     28 H6          0.9661    0.2749   -4.6437 H         1 <0>         0.0929
     29 H7          0.5747    1.8308   -5.4515 H         1 <0>         0.0740
     30 H8         -1.4685    3.2294   -4.2753 H         1 <0>         0.0734
     31 H9         -2.1808    2.4269   -2.8347 H         1 <0>         0.0800
     32 H10        -0.7675    2.6926   -1.2255 H         1 <0>         0.1086
     33 H11        -1.7847    1.2121   -1.2237 H         1 <0>         0.1091
     34 H12         0.0022   -0.0141    0.0019 H         1 <0>         0.1406
     35 H13         1.0193    1.4665    0.0002 H         1 <0>         0.1403
     36 H14        -0.6975   -0.1172    4.3537 H         1 <0>         0.0837
     37 H15        -1.0291   -0.7646    2.7113 H         1 <0>         0.1019
     38 H16         0.8317   -2.0046    3.9539 H         1 <0>         0.1091
     39 H17         1.3444   -1.3063    2.3803 H         1 <0>         0.0605
     40 H18         3.1791    1.4102    3.9519 H         1 <0>         0.1089
     41 H19         2.7130    0.6771    2.3796 H         1 <0>         0.0602
     42 H20         1.3594    2.6972    2.6999 H         1 <0>         0.1014
     43 H21         0.8759    2.1656    4.3462 H         1 <0>         0.0835
@<TRIPOS>BOND
     1    1    7 1
     2    1    2 1
     3    1   24 1
     4    1   25 1
     5    2    3 1
     6    2   26 1
     7    2   27 1
     8    3    4 1
     9    3    5 1
    10    3   21 1
    11    5    6 1
    12    5   28 1
    13    5   29 1
    14    6    7 1
    15    6    8 am
    16    7   30 1
    17    7   31 1
    18    8    9 2
    19    8   10 1
    20   10   11 1
    21   10   32 1
    22   10   33 1
    23   11   12 1
    24   11   34 1
    25   11   35 1
    26   12   13 2
    27   12   14 2
    28   12   15 1
    29   15   20 1
    30   15   16 1
    31   16   17 1
    32   16   36 1
    33   16   37 1
    34   17   18 1
    35   17   38 1
    36   17   39 1
    37   18   19 1
    38   19   20 1
    39   19   40 1
    40   19   41 1
    41   20   42 1
    42   20   43 1
    43   21   22 2
    44   21   23 1
@<TRIPOS>MOLECULE
ZINC36857588
   37    38     0     0     0
SMALL
USER_CHARGES

@<TRIPOS>ATOM
      1 C1          0.0528    1.5868   -0.0468 C.3       1 <0>        -0.1604
      2 C2          0.0389    0.0573   -0.0073 C.3       1 <0>         0.0983
      3 C3         -1.4077   -0.4385    0.0418 C.3       1 <0>        -0.1625
      4 N1          0.6947   -0.4681   -1.2073 N.pl3     1 <0>        -0.3797
      5 C4          0.2532   -0.3172   -2.4798 C.2       1 <0>         0.1026
      6 C5          1.1169   -0.9364   -3.3196 C.2       1 <0>        -0.1360
      7 C6          2.1387   -1.4972   -2.5471 C.2       1 <0>        -0.1051
      8 C7          1.8651   -1.1923   -1.2306 C.2       1 <0>        -0.0008
      9 C8          2.6725   -1.5729   -0.0667 C.2       1 <0>         0.6017
     10 O1          2.2626   -1.3501    1.0573 O.2       1 <0>        -0.5359
     11 N2          3.8683   -2.1693   -0.2420 N.am      1 <0>        -0.5684
     12 C9          4.5418   -2.3801   -1.5364 C.3       1 <0>         0.0864
     13 C10         6.0462   -2.4979   -1.1861 C.3       1 <0>        -0.1315
     14 C11         5.9934   -3.2713    0.1580 C.3       1 <0>        -0.1104
     15 C12         4.7201   -2.7118    0.8265 C.3       1 <0>         0.0680
     16 H1          4.9846   -1.9202    1.5276 H         1 <0>         0.0731
     17 C13         3.9949   -3.8183    1.5481 C.2       1 <0>         0.4979
     18 O2          3.1794   -4.5020    0.9531 O.co2     1 <0>        -0.6848
     19 O3          4.2236   -4.0298    2.7268 O.co2     1 <0>        -0.6924
     20 N3          0.9995   -1.0076   -4.7933 N.pl3     1 <0>         0.0742
     21 O4          0.0651   -0.4812   -5.3514 O.2       1 <0>        -0.1832
     22 O5          1.8380   -1.5921   -5.4390 O.3       1 <0>        -0.1656
     23 H2          1.0834    1.9400   -0.0818 H         1 <0>         0.0656
     24 H3         -0.4800    1.9322   -0.9328 H         1 <0>         0.0626
     25 H4         -0.4352    1.9777    0.8460 H         1 <0>         0.0837
     26 H5          0.5716   -0.2881    0.8787 H         1 <0>         0.1454
     27 H6         -1.9405   -0.0930   -0.8442 H         1 <0>         0.0628
     28 H7         -1.4176   -1.5281    0.0699 H         1 <0>         0.0698
     29 H8         -1.8957   -0.0475    0.9346 H         1 <0>         0.0844
     30 H9         -0.6414    0.2105   -2.7758 H         1 <0>         0.1924
     31 H10         2.9851   -2.0595   -2.9131 H         1 <0>         0.1795
     32 H11         4.1878   -3.2994   -2.0029 H         1 <0>         0.0770
     33 H12         4.3713   -1.5291   -2.1957 H         1 <0>         0.0790
     34 H13         6.5804   -3.0695   -1.9450 H         1 <0>         0.0836
     35 H14         6.4946   -1.5134   -1.0530 H         1 <0>         0.0732
     36 H15         5.9022   -4.3432   -0.0172 H         1 <0>         0.0773
     37 H16         6.8726   -3.0519    0.7639 H         1 <0>         0.0781
@<TRIPOS>BOND
     1    1    2 1
     2    1   23 1
     3    1   24 1
     4    1   25 1
     5    2    3 1
     6    2    4 1
     7    2   26 1
     8    3   27 1
     9    3   28 1
    10    3   29 1
    11    4    8 1
    12    4    5 1
    13    5    6 2
    14    5   30 1
    15    6    7 1
    16    6   20 1
    17    7    8 2
    18    7   31 1
    19    8    9 1
    20    9   10 2
    21    9   11 am
    22   11   15 1
    23   11   12 1
    24   12   13 1
    25   12   32 1
    26   12   33 1
    27   13   14 1
    28   13   34 1
    29   13   35 1
    30   14   15 1
    31   14   36 1
    32   14   37 1
    33   15   16 1
    34   15   17 1
    35   17   18 2
    36   17   19 1
    37   20   21 2
    38   20   22 1
@<TRIPOS>MOLECULE
ZINC43701199
   40    41     0     0     0
SMALL
USER_CHARGES

@<TRIPOS>ATOM
      1 C1         -0.0109    1.8176    0.0082 C.3       1 <0>        -0.6747
      2 S1          0.0052    0.0037   -0.0030 S.o2      1 <0>         2.6090
      3 O1          0.8327   -0.4848    1.0439 O.2       1 <0>        -0.9533
      4 O2         -1.3134   -0.4964   -0.1774 O.2       1 <0>        -0.9534
      5 N1          0.8005   -0.4062   -1.3965 N.pl3     1 <0>        -1.0000
      6 C2          0.0619   -0.5914   -2.6530 C.3       1 <0>         0.1215
      7 C3          0.4076   -1.9679   -3.2298 C.3       1 <0>        -0.1227
      8 C4          1.9266   -2.0912   -3.3695 C.3       1 <0>        -0.1049
      9 C5          2.5791   -1.9675   -1.9907 C.3       1 <0>        -0.1132
     10 C6          2.2587   -0.5856   -1.4011 C.3       1 <0>         0.1191
     11 C7          2.2686   -3.4311   -3.9684 C.2       1 <0>         0.5152
     12 O3          2.5530   -4.3632   -3.2465 O.2       1 <0>        -0.5369
     13 N2          2.2584   -3.5936   -5.3063 N.am      1 <0>        -0.6126
     14 C8          2.0256   -2.4528   -6.2062 C.3       1 <0>         0.0706
     15 C9          0.9245   -2.8382   -7.2006 C.3       1 <0>         0.0386
     16 O4          1.2660   -4.0789   -7.8235 O.3       1 <0>        -0.3471
     17 C10         1.3569   -5.1824   -6.9192 C.3       1 <0>         0.0139
     18 H1          0.4113   -5.2976   -6.3893 H         1 <0>         0.0550
     19 C11         2.4857   -4.9160   -5.9105 C.3       1 <0>         0.1025
     20 C12         1.6585   -6.4416   -7.6902 C.2       1 <0>         0.5075
     21 O5          1.8744   -6.3854   -8.8889 O.co2     1 <0>        -0.6702
     22 O6          1.6866   -7.5164   -7.1154 O.co2     1 <0>        -0.6852
     23 H2          1.0134    2.1901    0.0041 H         1 <0>         0.1266
     24 H3         -0.5335    2.1818   -0.8763 H         1 <0>         0.1268
     25 H4         -0.5224    2.1709    0.9036 H         1 <0>         0.1262
     26 H5         -1.0092   -0.5350   -2.4591 H         1 <0>         0.0987
     27 H6          0.3482    0.1846   -3.3629 H         1 <0>         0.0728
     28 H7          0.0395   -2.7456   -2.5607 H         1 <0>         0.0796
     29 H8         -0.0580   -2.0794   -4.2090 H         1 <0>         0.0818
     30 H9          2.2971   -1.2981   -4.0190 H         1 <0>         0.0942
     31 H10         2.1905   -2.7452   -1.3332 H         1 <0>         0.0832
     32 H11         3.6590   -2.0788   -2.0879 H         1 <0>         0.0797
     33 H12         2.7205    0.1909   -2.0110 H         1 <0>         0.0710
     34 H13         2.6375   -0.5253   -0.3808 H         1 <0>         0.0978
     35 H14         1.7093   -1.5861   -5.6259 H         1 <0>         0.0884
     36 H15         2.9428   -2.2185   -6.7466 H         1 <0>         0.0761
     37 H16        -0.0226   -2.9450   -6.6717 H         1 <0>         0.0461
     38 H17         0.8325   -2.0624   -7.9607 H         1 <0>         0.0982
     39 H18         3.4484   -4.9254   -6.4216 H         1 <0>         0.0716
     40 H19         2.4742   -5.6811   -5.1343 H         1 <0>         0.1024
@<TRIPOS>BOND
     1    1    2 1
     2    1   23 1
     3    1   24 1
     4    1   25 1
     5    2    3 2
     6    2    4 2
     7    2    5 1
     8    5   10 1
     9    5    6 1
    10    6    7 1
    11    6   26 1
    12    6   27 1
    13    7    8 1
    14    7   28 1
    15    7   29 1
    16    8    9 1
    17    8   11 1
    18    8   30 1
    19    9   10 1
    20    9   31 1
    21    9   32 1
    22   10   33 1
    23   10   34 1
    24   11   12 2
    25   11   13 am
    26   13   19 1
    27   13   14 1
    28   14   15 1
    29   14   35 1
    30   14   36 1
    31   15   16 1
    32   15   37 1
    33   15   38 1
    34   16   17 1
    35   17   18 1
    36   17   19 1
    37   17   20 1
    38   19   39 1
    39   19   40 1
    40   20   21 2
    41   20   22 1
@<TRIPOS>MOLECULE
ZINC49418150
   32    32     0     0     0
SMALL
USER_CHARGES

@<TRIPOS>ATOM
      1 C1         -0.0187    1.5258    0.0104 C.3       1 <0>        -0.1263
      2 C2          0.0021   -0.0041    0.0020 C.3       1 <0>        -0.5821
      3 C3         -1.4333   -0.5336    0.0129 C.3       1 <0>        -0.1403
      4 S1          0.8511   -0.5891   -1.4904 S.o2      1 <0>         2.5764
      5 O1          1.0369   -1.9965   -1.4280 O.2       1 <0>        -1.0025
      6 O2          0.2851    0.0164   -2.6447 O.2       1 <0>        -0.9979
      7 N1          2.3780    0.0437   -1.3871 N.2       1 <0>        -1.0753
      8 C4          3.2401   -0.1962   -2.3168 C.2       1 <0>         0.4907
      9 O3          2.8976   -0.9626   -3.3730 O.3       1 <0>        -0.7121
     10 C5          4.6296    0.3796   -2.2227 C.3       1 <0>        -0.0999
     11 C6          4.7548    1.2024   -0.9389 C.3       1 <0>         0.1140
     12 N2          6.1056    1.7622   -0.8475 N.pl3     1 <0>        -0.4382
     13 C7          7.1912    1.1720   -0.2587 C.2       1 <0>         0.0662
     14 C8          8.2234    2.0254   -0.4007 C.2       1 <0>         0.0261
     15 N3          7.7800    3.1071   -1.0582 N.2       1 <0>        -0.4568
     16 C9          6.5135    2.9543   -1.3335 C.2       1 <0>         0.2238
     17 N4          9.6050    1.8077    0.0840 N.pl3     1 <0>         0.0754
     18 O4          9.8872    0.7870    0.6673 O.2       1 <0>        -0.1670
     19 O5         10.4512    2.6506   -0.1034 O.3       1 <0>        -0.1415
     20 H1          1.0039    1.9031    0.0027 H         1 <0>         0.0760
     21 H2         -0.5459    1.8868   -0.8726 H         1 <0>         0.0647
     22 H3         -0.5289    1.8773    0.9072 H         1 <0>         0.0595
     23 H4          0.5293   -0.3651    0.8851 H         1 <0>         0.1244
     24 H5         -1.9605   -0.1726   -0.8702 H         1 <0>         0.0660
     25 H6         -1.4185   -1.6235    0.0069 H         1 <0>         0.0651
     26 H7         -1.9435   -0.1821    0.9097 H         1 <0>         0.0703
     27 H8          5.3585   -0.4307   -2.2075 H         1 <0>         0.0868
     28 H9          4.8165    1.0202   -3.0846 H         1 <0>         0.0883
     29 H10         4.0260    2.0127   -0.9542 H         1 <0>         0.1187
     30 H11         4.5679    0.5618   -0.0771 H         1 <0>         0.1141
     31 H12         7.2154    0.2076    0.2267 H         1 <0>         0.2036
     32 H13         5.8938    3.6645   -1.8607 H         1 <0>         0.2295
@<TRIPOS>BOND
     1    1    2 1
     2    1   20 1
     3    1   21 1
     4    1   22 1
     5    2    3 1
     6    2    4 1
     7    2   23 1
     8    3   24 1
     9    3   25 1
    10    3   26 1
    11    4    5 2
    12    4    6 2
    13    4    7 1
    14    7    8 2
    15    8    9 1
    16    8   10 1
    17   10   11 1
    18   10   27 1
    19   10   28 1
    20   11   12 1
    21   11   29 1
    22   11   30 1
    23   12   16 1
    24   12   13 1
    25   13   14 2
    26   13   31 1
    27   14   15 1
    28   14   17 1
    29   15   16 2
    30   16   32 1
    31   17   18 2
    32   17   19 1
@<TRIPOS>MOLECULE
ZINC62251803
   38    40     0     0     0
SMALL
USER_CHARGES

@<TRIPOS>ATOM
      1 C1         -0.0161    1.3389    0.0094 C.2       1 <0>        -0.0332
      2 C2          1.2599    1.7746   -0.0004 C.2       1 <0>        -0.0449
      3 N1          2.0537    0.6654   -0.0159 N.pl3     1 <0>        -0.4433
      4 C3          1.2356   -0.4139   -0.0088 C.2       1 <0>         0.1904
      5 N2          0.0021   -0.0041    0.0020 N.2       1 <0>        -0.4824
      6 C4          1.7318   -1.8423   -0.0073 C.3       1 <0>         0.2177
      7 N3          3.1798   -1.7971   -0.2817 N.pl3     1 <0>        -1.0150
      8 C5          3.9826   -0.7746    0.4063 C.3       1 <0>         0.1089
      9 C6          3.5170    0.6155   -0.0410 C.3       1 <0>         0.0787
     10 S1          3.8817   -2.8666   -1.3333 S.o2      1 <0>         2.7829
     11 O1          5.2531   -2.9516   -0.9711 O.2       1 <0>        -0.9666
     12 O2          3.0340   -4.0061   -1.3798 O.2       1 <0>        -0.9743
     13 N4          3.8316   -2.1777   -2.8384 N.pl3     1 <0>        -1.0016
     14 C7          2.6798   -2.3967   -3.7239 C.3       1 <0>         0.1241
     15 C8          2.1385   -1.0362   -4.1743 C.3       1 <0>        -0.1307
     16 C9          3.2717   -0.2246   -4.8062 C.3       1 <0>        -0.0925
     17 C10         4.3715    0.0126   -3.7687 C.3       1 <0>        -0.1641
     18 H1          3.9547    0.5402   -2.9108 H         1 <0>         0.0590
     19 C11         4.9353   -1.3311   -3.3113 C.3       1 <0>         0.1465
     20 C12         5.4716    0.8399   -4.3821 C.2       1 <0>         0.4987
     21 O3          5.2284    1.9542   -4.8130 O.co2     1 <0>        -0.6960
     22 O4          6.6049    0.3950   -4.4475 O.co2     1 <0>        -0.6935
     23 H2         -0.8987    1.9611    0.0252 H         1 <0>         0.1702
     24 H3          1.5897    2.8030    0.0032 H         1 <0>         0.1752
     25 H4          1.5521   -2.2972    0.9668 H         1 <0>         0.0986
     26 H5          1.2237   -2.4131   -0.7846 H         1 <0>         0.1118
     27 H6          3.8520   -0.8733    1.4839 H         1 <0>         0.0880
     28 H7          5.0345   -0.9056    0.1524 H         1 <0>         0.1187
     29 H8          3.8705    0.8094   -1.0537 H         1 <0>         0.0991
     30 H9          3.9186    1.3693    0.6362 H         1 <0>         0.1037
     31 H10         2.9928   -2.9721   -4.5951 H         1 <0>         0.0728
     32 H11         1.9027   -2.9390   -3.1853 H         1 <0>         0.0805
     33 H12         1.3451   -1.1848   -4.9069 H         1 <0>         0.0687
     34 H13         1.7427   -0.4987   -3.3126 H         1 <0>         0.0588
     35 H14         3.6835   -0.7740   -5.6528 H         1 <0>         0.0572
     36 H15         2.8837    0.7343   -5.1498 H         1 <0>         0.0661
     37 H16         5.6459   -1.1705   -2.5006 H         1 <0>         0.0835
     38 H17         5.4364   -1.8176   -4.1482 H         1 <0>         0.0787
@<TRIPOS>BOND
     1    1    5 1
     2    1    2 2
     3    1   23 1
     4    2    3 1
     5    2   24 1
     6    3    9 1
     7    3    4 1
     8    4    5 2
     9    4    6 1
    10    6    7 1
    11    6   25 1
    12    6   26 1
    13    7    8 1
    14    7   10 1
    15    8    9 1
    16    8   27 1
    17    8   28 1
    18    9   29 1
    19    9   30 1
    20   10   11 2
    21   10   12 2
    22   10   13 1
    23   13   19 1
    24   13   14 1
    25   14   15 1
    26   14   31 1
    27   14   32 1
    28   15   16 1
    29   15   33 1
    30   15   34 1
    31   16   17 1
    32   16   35 1
    33   16   36 1
    34   17   18 1
    35   17   19 1
    36   17   20 1
    37   19   37 1
    38   19   38 1
    39   20   21 2
    40   20   22 1
@<TRIPOS>MOLECULE
ZINC19643237
   41    43     0     0     0
SMALL
USER_CHARGES
4-[(E)-[3-(2-ethoxyphenyl)-5-sulfanyl-1,2,4-triazol-4-yl]iminomethyl]benzoic acid
@<TRIPOS>ATOM
      1 C1        -10.6350    8.4557    3.8528 C.3       1 <0>        -0.1517
      2 C2         -9.3887    7.7495    4.3904 C.3       1 <0>         0.0486
      3 O1         -8.5878    7.2981    3.2964 O.3       1 <0>        -0.2885
      4 C3         -7.4363    6.6460    3.6030 C.ar      1 <0>         0.1772
      5 C4         -7.0851    6.4400    4.9270 C.ar      1 <0>        -0.2143
      6 C5         -5.9103    5.7814    5.2380 C.ar      1 <0>        -0.0510
      7 C6         -5.0801    5.3189    4.2315 C.ar      1 <0>        -0.1512
      8 C7         -5.4179    5.5117    2.9081 C.ar      1 <0>        -0.0536
      9 C8         -6.6016    6.1753    2.5817 C.ar      1 <0>        -0.0744
     10 C9         -6.9689    6.3856    1.1665 C.2       1 <0>         0.3006
     11 N1         -8.0466    6.9897    0.7207 N.2       1 <0>        -0.2671
     12 N2         -8.0494    6.9952   -0.5641 N.pl3     1 <0>        -0.3964
     13 C10        -6.9711    6.4002   -1.0225 C.2       1 <0>         0.4486
     14 N3         -6.2456    5.9843    0.0632 N.pl3     1 <0>        -0.3470
     15 N4         -5.0229    5.3003    0.0542 N.2       1 <0>        -0.2491
     16 C11        -5.0053    4.0025    0.0471 C.2       1 <0>         0.2262
     17 C12        -3.7192    3.2831    0.0375 C.ar      1 <0>        -0.1079
     18 C13        -3.7001    1.8848    0.0298 C.ar      1 <0>        -0.0789
     19 C14        -2.5035    1.2157    0.0205 C.ar      1 <0>        -0.0993
     20 C15        -1.3025    1.9312    0.0187 C.ar      1 <0>        -0.0660
     21 C16        -1.3213    3.3290    0.0322 C.ar      1 <0>        -0.0913
     22 C17        -2.5176    3.9986    0.0357 C.ar      1 <0>        -0.0695
     23 C18        -0.0144    1.2107    0.0087 C.2       1 <0>         0.4829
     24 O2          0.0021   -0.0041    0.0020 O.co2     1 <0>        -0.6239
     25 O3          1.1432    1.9002    0.0013 O.co2     1 <0>        -0.7447
     26 S1         -6.5405    6.1757   -2.7163 S.2       1 <0>        -0.6279
     27 H1        -11.2515    8.8032    4.6949 H         1 <0>         0.0781
     28 H2        -11.2171    7.7541    3.2372 H         1 <0>         0.0675
     29 H3        -10.3324    9.3175    3.2398 H         1 <0>         0.0677
     30 H4         -8.8066    8.4511    5.0060 H         1 <0>         0.0643
     31 H5         -9.6913    6.8877    5.0034 H         1 <0>         0.0641
     32 H6         -7.7281    6.7982    5.7174 H         1 <0>         0.1373
     33 H7         -5.6388    5.6265    6.2718 H         1 <0>         0.1341
     34 H8         -4.1641    4.8053    4.4835 H         1 <0>         0.1385
     35 H9         -4.7676    5.1494    2.1256 H         1 <0>         0.1420
     36 H10        -5.9504    3.4396    0.0482 H         1 <0>         0.1322
     37 H11        -4.6279    1.3320    0.0316 H         1 <0>         0.1267
     38 H12        -2.4887    0.1358    0.0142 H         1 <0>         0.1374
     39 H13        -0.3933    3.8815    0.0352 H         1 <0>         0.1403
     40 H14        -2.5321    5.0784    0.0420 H         1 <0>         0.1322
     41 H15        -8.8842    7.4586   -1.1103 H         1 <0>         0.5072
@<TRIPOS>BOND
     1    1    2 1
     2    1   27 1
     3    1   28 1
     4    1   29 1
     5    2    3 1
     6    2   30 1
     7    2   31 1
     8    3    4 1
     9    4    9 ar
    10    4    5 ar
    11    5    6 ar
    12    5   32 1
    13    6    7 ar
    14    6   33 1
    15    7    8 ar
    16    7   34 1
    17    8    9 ar
    18    8   35 1
    19    9   10 1
    20   10   14 1
    21   10   11 2
    22   11   12 1
    23   12   13 1
    24   12   41 1
    25   13   14 1
    26   13   26 2
    27   14   15 1
    28   15   16 2
    29   16   17 1
    30   16   36 1
    31   17   22 ar
    32   17   18 ar
    33   18   19 ar
    34   18   37 1
    35   19   20 ar
    36   19   38 1
    37   20   21 ar
    38   20   23 1
    39   21   22 ar
    40   21   39 1
    41   22   40 1
    42   23   24 2
    43   23   25 1
@<TRIPOS>MOLECULE
ZINC18247566
   40    42     0     0     0
SMALL
USER_CHARGES

@<TRIPOS>ATOM
      1 C1         -0.0184    1.5028    0.0103 C.3       1 <0>        -0.0859
      2 C2          0.0021   -0.0041    0.0020 C.2       1 <0>         0.0729
      3 C3         -1.0762   -0.8076    0.0026 C.2       1 <0>        -0.2833
      4 C4         -0.6254   -2.1466   -0.0073 C.2       1 <0>         0.3377
      5 N1          0.6829   -2.1299   -0.0135 N.2       1 <0>        -0.3555
      6 O1          1.0997   -0.7765   -0.0131 O.3       1 <0>        -0.0745
      7 N2         -1.4321   -3.2847   -0.0099 N.am      1 <0>        -0.6300
      8 C5         -2.7740   -3.1595   -0.0028 C.2       1 <0>         0.5525
      9 O2         -3.2802   -2.0574    0.0060 O.2       1 <0>        -0.4888
     10 C6         -3.6455   -4.3889   -0.0057 C.3       1 <0>        -0.1000
     11 H1         -3.2102   -5.1444    0.6485 H         1 <0>         0.1259
     12 C7         -3.7429   -4.9417   -1.4290 C.3       1 <0>        -0.1430
     13 S1         -5.3035   -3.9562    0.5898 S.3       1 <0>         0.0277
     14 C8         -6.1452   -5.5022    0.6682 C.ar      1 <0>         0.3239
     15 N3         -5.4988   -6.6071    0.3232 N.ar      1 <0>        -0.6118
     16 C9         -6.0993   -7.7904    0.3692 C.ar      1 <0>         0.4454
     17 O3         -5.4296   -8.9141    0.0148 O.3       1 <0>        -0.6964
     18 C10        -7.4256   -7.8623    0.7866 C.ar      1 <0>        -0.3120
     19 C11        -8.0738   -6.6809    1.1417 C.ar      1 <0>         0.2073
     20 N4         -7.4047   -5.5303    1.0753 N.ar      1 <0>        -0.5749
     21 C12        -9.4868   -6.7043    1.5925 C.ar      1 <0>        -0.0272
     22 C13       -10.1763   -7.9130    1.6697 C.ar      1 <0>        -0.1011
     23 C14       -11.4907   -7.9289    2.0902 C.ar      1 <0>        -0.1278
     24 C15       -12.1239   -6.7482    2.4343 C.ar      1 <0>        -0.1227
     25 C16       -11.4444   -5.5457    2.3596 C.ar      1 <0>        -0.1308
     26 C17       -10.1280   -5.5185    1.9459 C.ar      1 <0>        -0.0825
     27 H2          1.0042    1.8801    0.0026 H         1 <0>         0.0835
     28 H3         -0.5455    1.8639   -0.8728 H         1 <0>         0.0959
     29 H4         -0.5286    1.8543    0.9071 H         1 <0>         0.0962
     30 H5         -2.1071   -0.4855    0.0097 H         1 <0>         0.1837
     31 H6         -1.0273   -4.1661   -0.0170 H         1 <0>         0.4258
     32 H7         -4.3733   -5.8309   -1.4311 H         1 <0>         0.1053
     33 H8         -4.1782   -4.1862   -2.0831 H         1 <0>         0.0652
     34 H9         -2.7467   -5.2017   -1.7868 H         1 <0>         0.0614
     35 H10        -7.9398   -8.8109    0.8337 H         1 <0>         0.1187
     36 H11        -9.6832   -8.8354    1.4006 H         1 <0>         0.1272
     37 H12       -12.0261   -8.8650    2.1504 H         1 <0>         0.1204
     38 H13       -13.1528   -6.7653    2.7622 H         1 <0>         0.1170
     39 H14       -11.9437   -4.6268    2.6292 H         1 <0>         0.1200
     40 H15        -9.5970   -4.5795    1.8923 H         1 <0>         0.1348
@<TRIPOS>BOND
     1    1    2 1
     2    1   27 1
     3    1   28 1
     4    1   29 1
     5    2    6 1
     6    2    3 2
     7    3    4 1
     8    3   30 1
     9    4    5 2
    10    4    7 1
    11    5    6 1
    12    7    8 am
    13    7   31 1
    14    8    9 2
    15    8   10 1
    16   10   11 1
    17   10   12 1
    18   10   13 1
    19   12   32 1
    20   12   33 1
    21   12   34 1
    22   13   14 1
    23   14   20 ar
    24   14   15 ar
    25   15   16 ar
    26   16   17 1
    27   16   18 ar
    28   18   35 1
    29   18   19 ar
    30   19   20 ar
    31   19   21 1
    32   21   26 ar
    33   21   22 ar
    34   22   23 ar
    35   22   36 1
    36   23   24 ar
    37   23   37 1
    38   24   25 ar
    39   24   38 1
    40   25   26 ar
    41   25   39 1
    42   26   40 1
@<TRIPOS>MOLECULE
ZINC41633440
   44    46     0     0     0
SMALL
USER_CHARGES

@<TRIPOS>ATOM
      1 C1         -0.0385    1.5437    0.0118 C.3       1 <0>        -0.1414
      2 C2         -0.0052    0.0141    0.0049 C.3       1 <0>        -0.1085
      3 H1          0.5093   -0.3341   -0.8907 H         1 <0>         0.1200
      4 C3         -1.4148   -0.5190    0.0137 C.2       1 <0>         0.5416
      5 O1         -1.9413   -0.8238    1.0630 O.2       1 <0>        -0.5049
      6 N1         -2.0902   -0.6573   -1.1443 N.am      1 <0>        -0.6603
      7 C4         -3.3648   -1.2395   -1.1468 C.ar      1 <0>         0.1222
      8 C5         -4.2256   -1.0334   -0.0786 C.ar      1 <0>        -0.0853
      9 C6         -5.4823   -1.6083   -0.0836 C.ar      1 <0>        -0.1371
     10 C7         -5.8848   -2.3897   -1.1511 C.ar      1 <0>        -0.0976
     11 C8         -5.0325   -2.5995   -2.2191 C.ar      1 <0>        -0.1927
     12 C9         -3.7730   -2.0220   -2.2245 C.ar      1 <0>         0.1018
     13 O2         -2.9357   -2.2228   -3.2768 O.3       1 <0>        -0.3173
     14 C10        -3.4215   -3.0363   -4.3465 C.3       1 <0>         0.0296
     15 S1          0.8745   -0.5782    1.4765 S.3       1 <0>         0.0433
     16 C11         2.5239   -0.0021    1.2478 C.ar      1 <0>         0.2672
     17 N2          3.4442   -0.2714    2.1668 N.ar      1 <0>        -0.5638
     18 C12         4.6862    0.1630    1.9936 C.ar      1 <0>         0.4327
     19 O3          5.6449   -0.0975    2.9144 O.3       1 <0>        -0.6507
     20 C13         4.9858    0.8992    0.8334 C.ar      1 <0>        -0.0458
     21 N3          4.0201    1.1345   -0.0472 N.ar      1 <0>        -0.1780
     22 N4          2.8295    0.6903    0.1567 N.ar      1 <0>        -0.3955
     23 C14         6.3590    1.4052    0.5972 C.ar      1 <0>         0.0076
     24 C15         7.1448    1.8234    1.6702 C.ar      1 <0>        -0.0767
     25 C16         8.4225    2.2931    1.4443 C.ar      1 <0>        -0.1312
     26 C17         8.9240    2.3495    0.1562 C.ar      1 <0>        -0.1302
     27 C18         8.1489    1.9360   -0.9123 C.ar      1 <0>        -0.1338
     28 C19         6.8716    1.4594   -0.6981 C.ar      1 <0>        -0.1006
     29 H2          0.9810    1.9293    0.0054 H         1 <0>         0.0963
     30 H3         -0.5671    1.8996   -0.8725 H         1 <0>         0.0626
     31 H4         -0.5530    1.8919    0.9074 H         1 <0>         0.0668
     32 H5         -1.6941   -0.3537   -1.9761 H         1 <0>         0.4161
     33 H6         -3.9136   -0.4242    0.7567 H         1 <0>         0.1488
     34 H7         -6.1516   -1.4472    0.7486 H         1 <0>         0.1276
     35 H8         -6.8676   -2.8375   -1.1503 H         1 <0>         0.1247
     36 H9         -5.3498   -3.2106   -3.0511 H         1 <0>         0.1304
     37 H10        -4.3189   -2.5837   -4.7684 H         1 <0>         0.0549
     38 H11        -2.6568   -3.1154   -5.1191 H         1 <0>         0.1006
     39 H12        -3.6596   -4.0303   -3.9678 H         1 <0>         0.0554
     40 H13         6.7542    1.7801    2.6761 H         1 <0>         0.1354
     41 H14         9.0321    2.6177    2.2746 H         1 <0>         0.1168
     42 H15         9.9244    2.7182   -0.0158 H         1 <0>         0.1133
     43 H16         8.5456    1.9823   -1.9157 H         1 <0>         0.1156
     44 H17         6.2688    1.1330   -1.5326 H         1 <0>         0.1204
@<TRIPOS>BOND
     1    1    2 1
     2    1   29 1
     3    1   30 1
     4    1   31 1
     5    2    3 1
     6    2    4 1
     7    2   15 1
     8    4    5 2
     9    4    6 am
    10    6    7 1
    11    6   32 1
    12    7   12 ar
    13    7    8 ar
    14    8    9 ar
    15    8   33 1
    16    9   10 ar
    17    9   34 1
    18   10   11 ar
    19   10   35 1
    20   11   12 ar
    21   11   36 1
    22   12   13 1
    23   13   14 1
    24   14   37 1
    25   14   38 1
    26   14   39 1
    27   15   16 1
    28   16   17 ar
    29   16   22 ar
    30   17   18 ar
    31   18   19 1
    32   18   20 ar
    33   20   21 ar
    34   20   23 1
    35   21   22 ar
    36   23   28 ar
    37   23   24 ar
    38   24   25 ar
    39   24   40 1
    40   25   26 ar
    41   25   41 1
    42   26   27 ar
    43   26   42 1
    44   27   28 ar
    45   27   43 1
    46   28   44 1
@<TRIPOS>MOLECULE
ZINC19962546
   46    48     0     0     0
SMALL
USER_CHARGES

@<TRIPOS>ATOM
      1 C1         -0.0184    1.5028    0.0103 C.3       1 <0>        -0.0687
      2 C2          0.0021   -0.0041    0.0020 C.2       1 <0>         0.2671
      3 N1          0.0078   -0.7469   -1.0577 N.2       1 <0>        -0.2667
      4 N2          0.0276   -2.0847   -0.6591 N.pl3     1 <0>        -0.4625
      5 C3          0.0413   -3.3567   -1.3931 C.3       1 <0>         0.2819
      6 H1         -0.8422   -3.3885   -2.0306 H         1 <0>         0.0728
      7 C4          0.0616   -4.6206   -0.5536 C.2       1 <0>        -0.2654
      8 C5          0.0653   -4.4740    0.7880 C.2       1 <0>         0.1042
      9 N3          0.0514   -3.2443    1.3696 N.2       1 <0>        -0.5621
     10 C6          0.0336   -2.1125    0.7061 C.2       1 <0>         0.5371
     11 N4          0.0236   -0.8049    1.1184 N.pl3     1 <0>        -0.6284
     12 C7          0.0843   -5.6765    1.6446 C.2       1 <0>         0.5364
     13 O1          0.0965   -6.7889    1.1367 O.co2     1 <0>        -0.6853
     14 O2          0.0879   -5.5600    2.8620 O.co2     1 <0>        -0.6670
     15 C8          1.2567   -3.3688   -2.2841 C.ar      1 <0>        -0.1218
     16 C9          2.4585   -2.8679   -1.8189 C.ar      1 <0>        -0.0507
     17 C10         3.5740   -2.8775   -2.6338 C.ar      1 <0>        -0.1499
     18 C11         3.4877   -3.3908   -3.9198 C.ar      1 <0>         0.1251
     19 C12         2.2807   -3.8932   -4.3840 C.ar      1 <0>        -0.2065
     20 C13         1.1695   -3.8861   -3.5634 C.ar      1 <0>        -0.0657
     21 O3          4.5834   -3.4009   -4.7235 O.3       1 <0>        -0.3180
     22 C14         4.4210   -3.9445   -6.0351 C.3       1 <0>         0.0577
     23 C15         5.7519   -3.8710   -6.7861 C.3       1 <0>        -0.1144
     24 C16         5.5780   -4.4530   -8.1903 C.3       1 <0>        -0.0936
     25 C17         6.8729   -4.2667   -8.9837 C.3       1 <0>        -0.1465
     26 C18         5.2530   -5.9446   -8.0876 C.3       1 <0>        -0.1543
     27 H2          1.0042    1.8801    0.0026 H         1 <0>         0.0916
     28 H3         -0.5455    1.8639   -0.8728 H         1 <0>         0.0965
     29 H4         -0.5286    1.8543    0.9071 H         1 <0>         0.0873
     30 H5          0.0723   -5.5987   -1.0115 H         1 <0>         0.1568
     31 H6          0.0281   -0.4983    2.0387 H         1 <0>         0.4379
     32 H7          2.5252   -2.4685   -0.8177 H         1 <0>         0.1151
     33 H8          4.5123   -2.4855   -2.2702 H         1 <0>         0.1264
     34 H9          2.2110   -4.2933   -5.3848 H         1 <0>         0.1258
     35 H10         0.2308   -4.2811   -3.9228 H         1 <0>         0.1265
     36 H11         4.1027   -4.9844   -5.9606 H         1 <0>         0.0641
     37 H12         3.6670   -3.3716   -6.5750 H         1 <0>         0.0593
     38 H13         6.0701   -2.8312   -6.8606 H         1 <0>         0.0727
     39 H14         6.5059   -4.4439   -6.2462 H         1 <0>         0.0741
     40 H15         4.7630   -3.9378   -8.6988 H         1 <0>         0.0721
     41 H16         7.6878   -4.7819   -8.4752 H         1 <0>         0.0562
     42 H17         6.7489   -4.6813   -9.9841 H         1 <0>         0.0564
     43 H18         7.1044   -3.2040   -9.0569 H         1 <0>         0.0554
     44 H19         5.1291   -6.3592   -9.0880 H         1 <0>         0.0562
     45 H20         6.0679   -6.4598   -7.5791 H         1 <0>         0.0575
     46 H21         4.3305   -6.0774   -7.5224 H         1 <0>         0.0572
@<TRIPOS>BOND
     1    1    2 1
     2    1   27 1
     3    1   28 1
     4    1   29 1
     5    2   11 1
     6    2    3 2
     7    3    4 1
     8    4   10 1
     9    4    5 1
    10    5    6 1
    11    5    7 1
    12    5   15 1
    13    7    8 2
    14    7   30 1
    15    8    9 1
    16    8   12 1
    17    9   10 2
    18   10   11 1
    19   11   31 1
    20   12   13 2
    21   12   14 1
    22   15   20 ar
    23   15   16 ar
    24   16   17 ar
    25   16   32 1
    26   17   18 ar
    27   17   33 1
    28   18   19 ar
    29   18   21 1
    30   19   20 ar
    31   19   34 1
    32   20   35 1
    33   21   22 1
    34   22   23 1
    35   22   36 1
    36   22   37 1
    37   23   24 1
    38   23   38 1
    39   23   39 1
    40   24   25 1
    41   24   26 1
    42   24   40 1
    43   25   41 1
    44   25   42 1
    45   25   43 1
    46   26   44 1
    47   26   45 1
    48   26   46 1
@<TRIPOS>MOLECULE
ZINC65650772
   42    43     0     0     0
SMALL
USER_CHARGES

@<TRIPOS>ATOM
      1 C1          1.2861    1.0813   -0.2305 C.3       1 <0>        -0.1098
      2 C2          0.5644   -0.2364   -0.1132 C.ar      1 <0>        -0.0764
      3 C3         -0.0944   -0.7631   -1.2093 C.ar      1 <0>        -0.1549
      4 C4         -0.7578   -1.9718   -1.1060 C.ar      1 <0>        -0.1003
      5 C5         -0.7650   -2.6571    0.0933 C.ar      1 <0>        -0.1448
      6 C6         -0.1045   -2.1310    1.1959 C.ar      1 <0>         0.1803
      7 C7          0.5662   -0.9193    1.0869 C.ar      1 <0>        -0.1267
      8 N1         -0.1099   -2.8221    2.4114 N.pl3     1 <0>        -0.6690
      9 C8          0.0686   -2.1459    3.5799 C.2       1 <0>         0.5493
     10 O1          0.1298   -0.8008    3.5768 O.3       1 <0>        -0.6100
     11 C9          0.1879   -2.8471    4.7807 C.2       1 <0>        -0.4366
     12 C10         0.1227   -4.2776    4.7840 C.1       1 <0>         0.2938
     13 N2          0.0710   -5.4124    4.7867 N.1       1 <0>        -0.5272
     14 C11         0.3737   -2.1428    5.9979 C.2       1 <0>         0.4593
     15 O2          0.3376   -0.9255    6.0086 O.2       1 <0>        -0.4764
     16 C12         0.6114   -2.8869    7.2543 C.ar      1 <0>        -0.1087
     17 C13         1.8956   -2.9535    7.7973 C.ar      1 <0>        -0.0262
     18 C14         2.1105   -3.6490    8.9689 C.ar      1 <0>        -0.0606
     19 C15         1.0563   -4.2798    9.6059 C.ar      1 <0>        -0.0565
     20 C16        -0.2188   -4.2177    9.0730 C.ar      1 <0>        -0.1242
     21 C17        -0.4482   -3.5204    7.9047 C.ar      1 <0>        -0.0059
     22 C18        -1.8391   -3.4481    7.3291 C.3       1 <0>        -0.1256
     23 N3          3.4717   -3.7210    9.5459 N.pl3     1 <0>         0.0407
     24 O3          4.3937   -3.1707    8.9902 O.2       1 <0>        -0.1630
     25 O4          3.6615   -4.3302   10.5728 O.3       1 <0>        -0.1716
     26 C19        -1.4891   -3.9740    0.2053 C.3       1 <0>        -0.1090
     27 H1          2.3160    0.9052   -0.5411 H         1 <0>         0.0647
     28 H2          0.7851    1.7054   -0.9705 H         1 <0>         0.0601
     29 H3          1.2793    1.5866    0.7353 H         1 <0>         0.0683
     30 H4         -0.0908   -0.2290   -2.1480 H         1 <0>         0.1129
     31 H5         -1.2712   -2.3804   -1.9638 H         1 <0>         0.1160
     32 H6          1.0848   -0.5097    1.9412 H         1 <0>         0.1580
     33 H7         -0.2407   -3.7832    2.4223 H         1 <0>         0.4011
     34 H8          2.7192   -2.4619    7.3009 H         1 <0>         0.1537
     35 H9          1.2299   -4.8234   10.5229 H         1 <0>         0.1492
     36 H10        -1.0372   -4.7125    9.5748 H         1 <0>         0.1452
     37 H11        -2.0259   -4.3313    6.7182 H         1 <0>         0.0835
     38 H12        -2.5662   -3.4069    8.1401 H         1 <0>         0.0741
     39 H13        -1.9313   -2.5538    6.7128 H         1 <0>         0.0841
     40 H14        -0.8069   -4.7863   -0.0453 H         1 <0>         0.0634
     41 H15        -1.8502   -4.1044    1.2254 H         1 <0>         0.0604
     42 H16        -2.3340   -3.9837   -0.4833 H         1 <0>         0.0651
@<TRIPOS>BOND
     1    1    2 1
     2    1   27 1
     3    1   28 1
     4    1   29 1
     5    2    7 ar
     6    2    3 ar
     7    3    4 ar
     8    3   30 1
     9    4    5 ar
    10    4   31 1
    11    5    6 ar
    12    5   26 1
    13    6    7 ar
    14    6    8 1
    15    7   32 1
    16    8    9 1
    17    8   33 1
    18    9   10 1
    19    9   11 2
    20   11   12 1
    21   11   14 1
    22   12   13 3
    23   14   15 2
    24   14   16 1
    25   16   21 ar
    26   16   17 ar
    27   17   18 ar
    28   17   34 1
    29   18   19 ar
    30   18   23 1
    31   19   20 ar
    32   19   35 1
    33   20   21 ar
    34   20   36 1
    35   21   22 1
    36   22   37 1
    37   22   38 1
    38   22   39 1
    39   23   24 2
    40   23   25 1
    41   26   40 1
    42   26   41 1
    43   26   42 1
@<TRIPOS>MOLECULE
ZINC11568041
   39    41     0     0     0
SMALL
USER_CHARGES
(3S)-1-[6-(3-nitrophenyl)pyridazin-3-yl]piperidine-3-carboxylic acid
@<TRIPOS>ATOM
      1 C1         -1.2211    1.7483    0.0174 C.ar      1 <0>        -0.1152
      2 C2         -1.2457    3.1284    0.0307 C.ar      1 <0>        -0.0572
      3 C3         -0.0501    3.8441    0.0236 C.ar      1 <0>        -0.0229
      4 C4          1.1649    3.1610    0.0084 C.ar      1 <0>        -0.0235
      5 C5          1.1776    1.7812    0.0004 C.ar      1 <0>        -0.0430
      6 C6         -0.0126    1.0758    0.0080 C.ar      1 <0>        -0.0532
      7 N1          2.4669    1.0544   -0.0158 N.pl3     1 <0>         0.0265
      8 O1          2.4795   -0.1635   -0.0225 O.2       1 <0>        -0.1621
      9 O2          3.5154    1.6743   -0.0225 O.3       1 <0>        -0.1484
     10 C7         -0.0702    5.3272    0.0328 C.ar      1 <0>         0.0546
     11 C8         -1.2900    6.0122    0.0481 C.ar      1 <0>        -0.0865
     12 C9         -1.2574    7.3949    0.0566 C.ar      1 <0>        -0.1318
     13 C10        -0.0098    8.0211    0.0494 C.ar      1 <0>         0.2726
     14 N2          1.0959    7.2908    0.0349 N.ar      1 <0>        -0.2637
     15 N3          1.0678    6.0075    0.0320 N.ar      1 <0>        -0.1985
     16 N4          0.0726    9.4085    0.0571 N.pl3     1 <0>        -0.4673
     17 C11        -0.6756    9.9863   -1.0666 C.3       1 <0>         0.0605
     18 C12        -0.6848   11.5118   -0.9444 C.3       1 <0>        -0.1179
     19 C13         0.7568   12.0279   -0.9475 C.3       1 <0>        -0.1019
     20 C14         1.5272   11.3741    0.2029 C.3       1 <0>        -0.1275
     21 H1          1.0751   11.6594    1.1529 H         1 <0>         0.0773
     22 C15         1.4723    9.8526    0.0475 C.3       1 <0>         0.0866
     23 C16         2.9627   11.8316    0.1713 C.2       1 <0>         0.4672
     24 O3          3.3319   12.6043   -0.6810 O.co2     1 <0>        -0.6371
     25 H2         -2.1471    1.1927    0.0184 H         1 <0>         0.1521
     26 H3         -2.1899    3.6525    0.0426 H         1 <0>         0.1467
     27 H4          2.0945    3.7107    0.0024 H         1 <0>         0.1679
     28 H5          0.0021   -0.0041    0.0020 H         1 <0>         0.1550
     29 H6         -2.2285    5.4777    0.0528 H         1 <0>         0.1516
     30 H7         -2.1697    7.9728    0.0682 H         1 <0>         0.1557
     31 H8         -0.2003    9.7000   -2.0049 H         1 <0>         0.0491
     32 H9         -1.7000    9.6145   -1.0503 H         1 <0>         0.0783
     33 H10        -1.1723   11.7993   -0.0128 H         1 <0>         0.0708
     34 H11        -1.2270   11.9416   -1.7866 H         1 <0>         0.0709
     35 H12         0.7565   13.1101   -0.8171 H         1 <0>         0.0677
     36 H13         1.2324   11.7744   -1.8949 H         1 <0>         0.0624
     37 H14         2.0078    9.3837    0.8729 H         1 <0>         0.0979
     38 H15         1.9374    9.5671   -0.8961 H         1 <0>         0.0504
     39 O4          3.8312   11.3807    1.0901 O.co2     1 <0>        -0.7638
@<TRIPOS>BOND
     1    1    6 ar
     2    1    2 ar
     3    1   25 1
     4    2    3 ar
     5    2   26 1
     6    3    4 ar
     7    3   10 1
     8    4    5 ar
     9    4   27 1
    10    5    6 ar
    11    5    7 1
    12    6   28 1
    13    7    8 2
    14    7    9 1
    15   10   15 ar
    16   10   11 ar
    17   11   12 ar
    18   11   29 1
    19   12   13 ar
    20   12   30 1
    21   13   14 ar
    22   13   16 1
    23   14   15 ar
    24   16   22 1
    25   16   17 1
    26   17   18 1
    27   17   31 1
    28   17   32 1
    29   18   19 1
    30   18   33 1
    31   18   34 1
    32   19   20 1
    33   19   35 1
    34   19   36 1
    35   20   21 1
    36   20   22 1
    37   20   23 1
    38   22   37 1
    39   22   38 1
    40   23   24 2
    41   23   39 1
@<TRIPOS>MOLECULE
ZINC38084870
   30    31     0     0     0
SMALL
USER_CHARGES

@<TRIPOS>ATOM
      1 C1         -0.0061    1.3630   -0.2409 C.ar      1 <0>        -0.0195
      2 C2          1.1743    2.0793   -0.2378 C.ar      1 <0>        -0.2346
      3 C3          2.3811    1.4302   -0.0240 C.ar      1 <0>         0.2026
      4 C4          2.3957    0.0432    0.1894 C.ar      1 <0>        -0.1613
      5 C5          1.1921   -0.6689    0.1840 C.ar      1 <0>         0.0159
      6 C6          0.0035   -0.0066   -0.0307 C.ar      1 <0>        -0.1036
      7 N1         -1.2696   -0.7616   -0.0367 N.pl3     1 <0>         0.0471
      8 O1         -2.3145   -0.1832   -0.2247 O.2       1 <0>        -0.1830
      9 O2         -1.2646   -1.9566    0.1464 O.3       1 <0>        -0.1671
     10 C7          3.6697   -0.6575    0.4170 C.2       1 <0>         0.5252
     11 O3          3.6780   -1.8667    0.6026 O.co2     1 <0>        -0.6777
     12 O4          4.7204   -0.0308    0.4206 O.co2     1 <0>        -0.6575
     13 O5          3.5412    2.1323   -0.0216 O.3       1 <0>        -0.2262
     14 C8          3.4394    3.5539   -0.1245 C.3       1 <0>         0.0643
     15 H1          2.5481    3.8980    0.4001 H         1 <0>         0.0973
     16 C9          3.3614    3.9633   -1.6046 C.3       1 <0>        -0.1580
     17 C10         3.5735    5.4903   -1.7417 C.3       1 <0>        -0.5733
     18 S1          4.6254    5.8843   -0.2854 S.o2      1 <0>         2.3777
     19 O6          3.9143    6.7649    0.5738 O.2       1 <0>        -0.9337
     20 O7          5.9237    6.2447   -0.7368 O.2       1 <0>        -0.9307
     21 C11         4.7026    4.2172    0.4951 C.3       1 <0>        -0.5683
     22 H2         -0.9435    1.8741   -0.4038 H         1 <0>         0.1495
     23 H3          1.1578    3.1465   -0.4025 H         1 <0>         0.1466
     24 H4          1.1946   -1.7365    0.3470 H         1 <0>         0.1645
     25 H5          4.1343    3.4387   -2.1664 H         1 <0>         0.1056
     26 H6          2.3823    3.6968   -2.0027 H         1 <0>         0.1020
     27 H7          4.0942    5.7264   -2.6697 H         1 <0>         0.1463
     28 H8          2.6221    6.0192   -1.6857 H         1 <0>         0.1412
     29 H9          4.6198    4.2859    1.5798 H         1 <0>         0.1497
     30 H10         5.6093    3.6870    0.2038 H         1 <0>         0.1591
@<TRIPOS>BOND
     1    1    6 ar
     2    1    2 ar
     3    1   22 1
     4    2    3 ar
     5    2   23 1
     6    3    4 ar
     7    3   13 1
     8    4    5 ar
     9    4   10 1
    10    5    6 ar
    11    5   24 1
    12    6    7 1
    13    7    8 2
    14    7    9 1
    15   10   11 2
    16   10   12 1
    17   13   14 1
    18   14   15 1
    19   14   21 1
    20   14   16 1
    21   16   17 1
    22   16   25 1
    23   16   26 1
    24   17   18 1
    25   17   27 1
    26   17   28 1
    27   18   19 2
    28   18   20 2
    29   18   21 1
    30   21   29 1
    31   21   30 1
@<TRIPOS>MOLECULE
ZINC49063866
   33    33     0     0     0
SMALL
USER_CHARGES

@<TRIPOS>ATOM
      1 C1         -0.0187    1.5258    0.0104 C.3       1 <0>        -0.1242
      2 C2          0.0021   -0.0041    0.0020 C.3       1 <0>        -0.5742
      3 H1          0.5123   -0.3556   -0.8948 H         1 <0>         0.1591
      4 C3         -1.4117   -0.5257    0.0127 C.2       1 <0>         0.4895
      5 O1         -1.9370   -0.8260    1.0586 O.2       1 <0>        -0.4916
      6 O2         -2.0875   -0.6567   -1.1396 O.3       1 <0>        -0.3445
      7 C4         -3.4233   -1.1572   -1.0551 C.3       1 <0>         0.0282
      8 S1          0.8794   -0.6050    1.4716 S.o2      1 <0>         2.5646
      9 O3          0.2629   -0.1027    2.6492 O.2       1 <0>        -0.9763
     10 O4          1.1657   -1.9905    1.3383 O.2       1 <0>        -0.9957
     11 N1          2.3579    0.1390    1.4185 N.2       1 <0>        -1.0196
     12 C5          3.2925   -0.1045    2.4128 C.2       1 <0>         0.4403
     13 N2          4.5035    0.3954    2.5371 N.2       1 <0>        -0.5818
     14 C6          5.2787    0.0599    3.5533 C.2       1 <0>         0.1194
     15 C7          4.7704   -0.8160    4.4529 C.2       1 <0>        -0.3018
     16 S2          3.1513   -1.1056    3.7583 S.3       1 <0>        -0.1064
     17 C8          6.6670    0.6263    3.7045 C.3       1 <0>        -0.0273
     18 C9          7.4579    0.3593    2.4498 C.2       1 <0>         0.4556
     19 O5          6.9466   -0.2305    1.5274 O.2       1 <0>        -0.4711
     20 O6          8.7302    0.7766    2.3569 O.3       1 <0>        -0.3656
     21 C10         9.4199    0.4892    1.1387 C.3       1 <0>         0.0362
     22 H2          1.0039    1.9031    0.0027 H         1 <0>         0.1036
     23 H3         -0.5459    1.8868   -0.8726 H         1 <0>         0.0726
     24 H4         -0.5289    1.8773    0.9072 H         1 <0>         0.0737
     25 H5         -4.0235   -0.4885   -0.4380 H         1 <0>         0.0627
     26 H6         -3.8541   -1.2136   -2.0547 H         1 <0>         0.1035
     27 H7         -3.4113   -2.1512   -0.6079 H         1 <0>         0.0634
     28 H8          5.2194   -1.2241    5.3463 H         1 <0>         0.1732
     29 H9          6.6045    1.7014    3.8727 H         1 <0>         0.1134
     30 H10         7.1617    0.1540    4.5532 H         1 <0>         0.1129
     31 H11        10.4359    0.8800    1.1955 H         1 <0>         0.0949
     32 H12         9.4536   -0.5895    0.9860 H         1 <0>         0.0556
     33 H13         8.8964    0.9580    0.3055 H         1 <0>         0.0577
@<TRIPOS>BOND
     1    1    2 1
     2    1   22 1
     3    1   23 1
     4    1   24 1
     5    2    3 1
     6    2    4 1
     7    2    8 1
     8    4    5 2
     9    4    6 1
    10    6    7 1
    11    7   25 1
    12    7   26 1
    13    7   27 1
    14    8    9 2
    15    8   10 2
    16    8   11 1
    17   11   12 1
    18   12   16 1
    19   12   13 2
    20   13   14 1
    21   14   15 2
    22   14   17 1
    23   15   16 1
    24   15   28 1
    25   17   18 1
    26   17   29 1
    27   17   30 1
    28   18   19 2
    29   18   20 1
    30   20   21 1
    31   21   31 1
    32   21   32 1
    33   21   33 1
@<TRIPOS>MOLECULE
ZINC31555999
   42    44     0     0     0
SMALL
USER_CHARGES

@<TRIPOS>ATOM
      1 C1          0.0997    1.5143    0.0938 C.3       1 <0>        -0.1760
      2 C2          0.1372    0.0078    0.0802 C.ar      1 <0>         0.0919
      3 C3          0.1225   -0.6732   -1.1230 C.ar      1 <0>        -0.0768
      4 C4          0.1569   -2.0548   -1.1355 C.ar      1 <0>        -0.0223
      5 C5          0.2066   -2.7559    0.0551 C.ar      1 <0>        -0.1484
      6 C6          0.2222   -2.0751    1.2578 C.ar      1 <0>         0.0168
      7 C7          0.1921   -0.6929    1.2702 C.ar      1 <0>        -0.6232
      8 S1          0.2182    0.1751    2.8034 S.o2      1 <0>         2.6024
      9 O1         -0.8339    1.1287    2.7481 O.2       1 <0>        -1.0190
     10 O2          0.3020   -0.8084    3.8256 O.2       1 <0>        -1.0231
     11 N1          1.6331    1.0340    2.8557 N.2       1 <0>        -1.0767
     12 C8          1.9286    1.8258    3.9677 C.ar      1 <0>         0.2984
     13 C9          1.0384    1.8891    5.0332 C.ar      1 <0>        -0.2809
     14 C10         1.3301    2.6720    6.1331 C.ar      1 <0>        -0.0445
     15 C11         2.5069    3.3950    6.1778 C.ar      1 <0>        -0.2536
     16 C12         3.4009    3.3361    5.1163 C.ar      1 <0>         0.1888
     17 C13         3.1140    2.5458    4.0124 C.ar      1 <0>        -0.2077
     18 N2          4.5922    4.0686    5.1626 N.am      1 <0>        -0.5546
     19 C14         5.0539    4.8257    6.3320 C.3       1 <0>         0.0983
     20 C15         6.5567    5.0865    6.0871 C.3       1 <0>        -0.1315
     21 C16         6.6395    5.0279    4.5442 C.3       1 <0>        -0.1535
     22 C17         5.4637    4.1644    4.1437 C.2       1 <0>         0.5061
     23 O3          5.3260    3.6375    3.0599 O.2       1 <0>        -0.5036
     24 N3          0.0693    0.0774   -2.3976 N.pl3     1 <0>         0.0365
     25 O4         -0.5837   -0.3470   -3.3223 O.2       1 <0>        -0.1692
     26 O5          0.6790    1.1149   -2.5140 O.3       1 <0>        -0.1417
     27 H1          1.1161    1.9025    0.1588 H         1 <0>         0.1172
     28 H2         -0.3689    1.8744   -0.8221 H         1 <0>         0.0766
     29 H3         -0.4753    1.8556    0.9546 H         1 <0>         0.1209
     30 H4          0.1447   -2.5868   -2.0753 H         1 <0>         0.1483
     31 H5          0.2327   -3.8355    0.0453 H         1 <0>         0.1505
     32 H6          0.2606   -2.6228    2.1879 H         1 <0>         0.1572
     33 H7          0.1175    1.3258    5.0009 H         1 <0>         0.0969
     34 H8          0.6368    2.7195    6.9598 H         1 <0>         0.1074
     35 H9          2.7317    4.0067    7.0390 H         1 <0>         0.1054
     36 H10         3.8095    2.4949    3.1878 H         1 <0>         0.1483
     37 H11         4.5145    5.7699    6.4070 H         1 <0>         0.0758
     38 H12         4.9160    4.2385    7.2400 H         1 <0>         0.0841
     39 H13         6.8471    6.0701    6.4563 H         1 <0>         0.0905
     40 H14         7.1671    4.3054    6.5405 H         1 <0>         0.0824
     41 H15         6.5463    6.0271    4.1189 H         1 <0>         0.1042
     42 H16         7.5744    4.5641    4.2296 H         1 <0>         0.1013
@<TRIPOS>BOND
     1    1    2 1
     2    1   27 1
     3    1   28 1
     4    1   29 1
     5    2    7 ar
     6    2    3 ar
     7    3    4 ar
     8    3   24 1
     9    4    5 ar
    10    4   30 1
    11    5    6 ar
    12    5   31 1
    13    6    7 ar
    14    6   32 1
    15    7    8 1
    16    8    9 2
    17    8   10 2
    18    8   11 1
    19   11   12 1
    20   12   17 ar
    21   12   13 ar
    22   13   14 ar
    23   13   33 1
    24   14   15 ar
    25   14   34 1
    26   15   16 ar
    27   15   35 1
    28   16   17 ar
    29   16   18 1
    30   17   36 1
    31   18   22 am
    32   18   19 1
    33   19   20 1
    34   19   37 1
    35   19   38 1
    36   20   21 1
    37   20   39 1
    38   20   40 1
    39   21   22 1
    40   21   41 1
    41   21   42 1
    42   22   23 2
    43   24   25 2
    44   24   26 1
@<TRIPOS>MOLECULE
ZINC63912510
   39    41     0     0     0
SMALL
USER_CHARGES

@<TRIPOS>ATOM
      1 C1         -0.0184    1.5028    0.0103 C.3       1 <0>        -0.0769
      2 C2          0.0021   -0.0041    0.0020 C.ar      1 <0>        -0.1325
      3 C3          0.0058   -0.6930   -1.2030 C.ar      1 <0>         0.2835
      4 C4          0.0246   -2.0823   -1.2070 C.ar      1 <0>        -0.2541
      5 C5          0.0396   -2.7778   -0.0132 C.ar      1 <0>        -0.0632
      6 C6          0.0360   -2.0949    1.1876 C.ar      1 <0>        -0.2035
      7 C7          0.0230   -0.7055    1.1986 C.ar      1 <0>         0.1683
      8 N1          0.0252   -0.0147    2.4154 N.am      1 <0>        -0.5667
      9 C8         -1.1850    0.3726    3.1499 C.3       1 <0>         0.1030
     10 C9         -0.7106    0.6971    4.5838 C.3       1 <0>        -0.1306
     11 C10         0.7665    1.0880    4.3463 C.3       1 <0>        -0.1533
     12 C11         1.1360    0.3744    3.0646 C.2       1 <0>         0.5154
     13 O1          2.2696    0.1834    2.6778 O.2       1 <0>        -0.5245
     14 N2         -0.0099    0.0095   -2.4101 N.2       1 <0>        -1.0752
     15 S1         -0.0054   -0.8134   -3.8471 S.o2      1 <0>         2.6164
     16 O2          1.2488   -1.4758   -3.9319 O.2       1 <0>        -1.0043
     17 O3         -1.2416   -1.5104   -3.9198 O.2       1 <0>        -1.0098
     18 C12        -0.0284    0.3883   -5.1356 C.2       1 <0>        -0.6200
     19 C13         1.0133    0.9810   -5.7687 C.2       1 <0>        -0.0666
     20 C14         0.7551    1.9068   -6.7620 C.2       1 <0>        -0.0676
     21 C15        -0.5323    2.1947   -7.0737 C.2       1 <0>        -0.1705
     22 S2         -1.4297    1.1353   -5.9514 S.3       1 <0>         0.3040
     23 N3         -1.0578    3.1386   -8.0859 N.pl3     1 <0>         0.0810
     24 O4         -0.2935    3.7789   -8.7697 O.2       1 <0>        -0.1409
     25 O5         -2.2512    3.2691   -8.2288 O.3       1 <0>        -0.1446
     26 H1          1.0042    1.8801    0.0026 H         1 <0>         0.0493
     27 H2         -0.5455    1.8639   -0.8728 H         1 <0>         0.0737
     28 H3         -0.5286    1.8543    0.9071 H         1 <0>         0.0377
     29 H4          0.0271   -2.6191   -2.1441 H         1 <0>         0.1005
     30 H5          0.0539   -3.8577   -0.0189 H         1 <0>         0.1102
     31 H6          0.0477   -2.6416    2.1190 H         1 <0>         0.1057
     32 H7         -1.6373    1.2533    2.6939 H         1 <0>         0.0732
     33 H8         -1.8969   -0.4526    3.1658 H         1 <0>         0.0797
     34 H9         -1.2729    1.5325    5.0010 H         1 <0>         0.0888
     35 H10        -0.7835   -0.1801    5.2267 H         1 <0>         0.0806
     36 H11         0.8612    2.1673    4.2274 H         1 <0>         0.1027
     37 H12         1.3907    0.7376    5.1683 H         1 <0>         0.0984
     38 H13         2.0299    0.7338   -5.5008 H         1 <0>         0.1691
     39 H14         1.5669    2.3939   -7.2818 H         1 <0>         0.1637
@<TRIPOS>BOND
     1    1    2 1
     2    1   26 1
     3    1   27 1
     4    1   28 1
     5    2    7 ar
     6    2    3 ar
     7    3    4 ar
     8    3   14 1
     9    4    5 ar
    10    4   29 1
    11    5    6 ar
    12    5   30 1
    13    6    7 ar
    14    6   31 1
    15    7    8 1
    16    8   12 am
    17    8    9 1
    18    9   10 1
    19    9   32 1
    20    9   33 1
    21   10   11 1
    22   10   34 1
    23   10   35 1
    24   11   12 1
    25   11   36 1
    26   11   37 1
    27   12   13 2
    28   14   15 1
    29   15   16 2
    30   15   17 2
    31   15   18 1
    32   18   22 1
    33   18   19 2
    34   19   20 1
    35   19   38 1
    36   20   21 2
    37   20   39 1
    38   21   22 1
    39   21   23 1
    40   23   24 2
    41   23   25 1
@<TRIPOS>MOLECULE
ZINC20506018
   26    26     0     0     0
SMALL
USER_CHARGES
(E)-4-[(4-bromo-2,6-dichloro-phenyl)carbamoylamino]-4-oxo-but-2-enoic acid
@<TRIPOS>ATOM
      1 C1         -0.4386    1.7767   -1.1194 C.ar      1 <0>        -0.0749
      2 C2         -1.2232    1.7553    0.0199 C.ar      1 <0>        -0.0688
      3 C3         -0.8173    2.4330    1.1557 C.ar      1 <0>        -0.0751
      4 C4          0.3686    3.1432    1.1517 C.ar      1 <0>        -0.0141
      5 C5          1.1559    3.1714    0.0074 C.ar      1 <0>         0.1973
      6 C6          0.7483    2.4851   -1.1297 C.ar      1 <0>        -0.0163
      7 Cl1         1.7283    2.5178   -2.5623 Cl        1 <0>        -0.0292
      8 N1          2.3579    3.8906   -0.0000 N.am      1 <0>        -0.7119
      9 C7          2.3694    5.1799   -0.3925 C.2       1 <0>         0.7091
     10 O1          1.3253    5.7454   -0.6522 O.2       1 <0>        -0.5186
     11 N2          3.5386    5.8422   -0.4969 N.am      1 <0>        -0.6966
     12 C8          3.5500    7.1315   -0.8893 C.2       1 <0>         0.5575
     13 O2          2.5064    7.6967   -1.1489 O.2       1 <0>        -0.4786
     14 C9          4.8304    7.8567   -1.0036 C.2       1 <0>        -0.2197
     15 C10         4.8418    9.1415   -1.3947 C.2       1 <0>        -0.0600
     16 C11         6.1217    9.8664   -1.5090 C.2       1 <0>         0.4726
     17 O3          7.1650    9.3014   -1.2495 O.co2     1 <0>        -0.6234
     18 O4          6.1332   11.1556   -1.9014 O.co2     1 <0>        -0.7451
     19 Cl2         0.8739    3.9987    2.5753 Cl        1 <0>        -0.0290
     20 Br1        -2.8501    0.7913    0.0272 Br        1 <0>        -0.0209
     21 H1         -0.7560    1.2430   -2.0031 H         1 <0>         0.1541
     22 H2         -1.4297    2.4107    2.0450 H         1 <0>         0.1540
     23 H3          3.2925    3.4031    0.3145 H         1 <0>         0.4358
     24 H4          4.4835    5.3304   -0.2618 H         1 <0>         0.4357
     25 H5          5.7753    7.3449   -0.7685 H         1 <0>         0.1424
     26 H6          3.8969    9.6533   -1.6298 H         1 <0>         0.1236
@<TRIPOS>BOND
     1    1    6 ar
     2    1    2 ar
     3    1   21 1
     4    2    3 ar
     5    2   20 1
     6    3    4 ar
     7    3   22 1
     8    4    5 ar
     9    4   19 1
    10    5    6 ar
    11    5    8 1
    12    6    7 1
    13    8    9 am
    14    8   23 1
    15    9   10 2
    16    9   11 am
    17   11   12 am
    18   11   24 1
    19   12   13 2
    20   12   14 1
    21   14   15 2
    22   14   25 1
    23   15   16 1
    24   15   26 1
    25   16   17 2
    26   16   18 1
@<TRIPOS>MOLECULE
ZINC40123856
   45    47     0     0     0
SMALL
USER_CHARGES

@<TRIPOS>ATOM
      1 C1          0.0977    1.5385   -0.1451 C.3       1 <0>        -0.1003
      2 C2          0.1277    0.0320   -0.1191 C.ar      1 <0>        -0.1334
      3 C3          0.0787   -0.6770   -1.2983 C.ar      1 <0>        -0.0360
      4 C4          0.1067   -2.0745   -1.2730 C.ar      1 <0>        -0.1684
      5 C5          0.1843   -2.7464   -0.0490 C.ar      1 <0>        -0.0313
      6 C6          0.2329   -2.0300    1.1253 C.ar      1 <0>        -0.2219
      7 C7          0.2106   -0.6398    1.0953 C.ar      1 <0>         0.1400
      8 O1          0.2643    0.0629    2.2549 O.3       1 <0>        -0.3086
      9 C8          0.3486   -0.6901    3.4665 C.3       1 <0>         0.0843
     10 C9          0.3986    0.2524    4.6413 C.2       1 <0>        -0.1522
     11 C10        -0.3396    0.0211    5.6985 C.2       1 <0>        -0.1752
     12 C11         0.0538   -2.8388   -2.5347 C.2       1 <0>         0.5074
     13 O2         -0.0847   -2.2558   -3.5939 O.2       1 <0>        -0.4750
     14 C12         0.1683   -4.3005   -2.5118 C.2       1 <0>        -0.5035
     15 C13         1.1881   -5.0381   -3.0090 C.2       1 <0>         0.2607
     16 C14         0.9081   -6.4710   -2.7793 C.2       1 <0>         0.5121
     17 O3          1.6356   -7.3856   -3.1118 O.2       1 <0>        -0.5390
     18 N1         -0.2712   -6.6129   -2.1476 N.am      1 <0>        -0.7251
     19 C15        -0.8266   -5.2732   -1.9228 C.3       1 <0>         0.2613
     20 H1         -0.9446   -5.0881   -0.8551 H         1 <0>         0.0731
     21 C16        -2.1552   -5.1425   -2.6220 C.ar      1 <0>        -0.0771
     22 C17        -2.3795   -5.8152   -3.8090 C.ar      1 <0>        -0.0827
     23 C18        -3.5964   -5.6967   -4.4521 C.ar      1 <0>        -0.1432
     24 C19        -4.5939   -4.9023   -3.9058 C.ar      1 <0>         0.0880
     25 C20        -4.3665   -4.2288   -2.7145 C.ar      1 <0>        -0.1434
     26 C21        -3.1497   -4.3547   -2.0726 C.ar      1 <0>        -0.0995
     27 O4         -5.7917   -4.7838   -4.5368 O.3       1 <0>        -0.5009
     28 O5          2.2892   -4.5425   -3.6195 O.3       1 <0>        -0.6545
     29 H2          1.1162    1.9211   -0.2107 H         1 <0>         0.0650
     30 H3         -0.4734    1.8756   -1.0101 H         1 <0>         0.0640
     31 H4         -0.3714    1.9084    0.7666 H         1 <0>         0.0664
     32 H5          0.0184   -0.1543   -2.2414 H         1 <0>         0.1363
     33 H6          0.2057   -3.8259   -0.0251 H         1 <0>         0.1367
     34 H7          0.2929   -2.5481    2.0710 H         1 <0>         0.1273
     35 H8         -0.5257   -1.3350    3.5550 H         1 <0>         0.0678
     36 H9          1.2510   -1.3013    3.4524 H         1 <0>         0.0734
     37 H10         1.0431    1.1185    4.6117 H         1 <0>         0.1190
     38 H11        -0.3038    0.6966    6.5404 H         1 <0>         0.1063
     39 H12        -0.9841   -0.8450    5.7281 H         1 <0>         0.0995
     40 H13        -0.6803   -7.4520   -1.8840 H         1 <0>         0.4062
     41 H14        -1.6026   -6.4335   -4.2339 H         1 <0>         0.1232
     42 H15        -3.7708   -6.2218   -5.3796 H         1 <0>         0.1233
     43 H16        -5.1415   -3.6097   -2.2872 H         1 <0>         0.1234
     44 H17        -2.9738   -3.8340   -1.1428 H         1 <0>         0.1241
     45 H18        -6.4448   -5.4445   -4.2683 H         1 <0>         0.3824
@<TRIPOS>BOND
     1    1    2 1
     2    1   29 1
     3    1   30 1
     4    1   31 1
     5    2    7 ar
     6    2    3 ar
     7    3    4 ar
     8    3   32 1
     9    4    5 ar
    10    4   12 1
    11    5    6 ar
    12    5   33 1
    13    6    7 ar
    14    6   34 1
    15    7    8 1
    16    8    9 1
    17    9   10 1
    18    9   35 1
    19    9   36 1
    20   10   11 2
    21   10   37 1
    22   11   38 1
    23   11   39 1
    24   12   13 2
    25   12   14 1
    26   14   19 1
    27   14   15 2
    28   15   16 1
    29   15   28 1
    30   16   17 2
    31   16   18 am
    32   18   19 1
    33   18   40 1
    34   19   20 1
    35   19   21 1
    36   21   26 ar
    37   21   22 ar
    38   22   23 ar
    39   22   41 1
    40   23   24 ar
    41   23   42 1
    42   24   25 ar
    43   24   27 1
    44   25   26 ar
    45   25   43 1
    46   26   44 1
    47   27   45 1
@<TRIPOS>MOLECULE
ZINC10514396
   37    38     0     0     0
SMALL
USER_CHARGES

@<TRIPOS>ATOM
      1 C1         -0.0184    1.5028    0.0103 C.3       1 <0>        -0.1113
      2 C2          0.0021   -0.0041    0.0020 C.ar      1 <0>        -0.1463
      3 C3          0.0057   -0.6874   -1.2004 C.ar      1 <0>        -0.0629
      4 C4          0.0244   -2.0681   -1.2116 C.ar      1 <0>        -0.2332
      5 C5          0.0396   -2.7708   -0.0132 C.ar      1 <0>         0.2742
      6 C6          0.0359   -2.0814    1.1925 C.ar      1 <0>        -0.1319
      7 C7          0.0229   -0.7002    1.1965 C.ar      1 <0>        -0.1414
      8 C8          0.0251    0.0488    2.5042 C.3       1 <0>         0.5102
      9 F1          0.0475   -0.8638    3.5642 F         1 <0>        -0.1809
     10 F2          1.1570    0.8683    2.5703 F         1 <0>        -0.1826
     11 F3         -1.1273    0.8372    2.5919 F         1 <0>        -0.1823
     12 N1          0.0581   -4.1674   -0.0209 N.2       1 <0>        -1.0836
     13 S1          0.0619   -4.9875   -1.4596 S.o2      1 <0>         2.5956
     14 O1         -1.1901   -4.7266   -2.0791 O.2       1 <0>        -1.0199
     15 O2          1.3004   -4.6936   -2.0913 O.2       1 <0>        -1.0199
     16 C9          0.0866   -6.7076   -1.0786 C.ar      1 <0>        -0.5582
     17 C10         1.2933   -7.3653   -0.9295 C.ar      1 <0>        -0.0454
     18 C11         1.3126   -8.7148   -0.6306 C.ar      1 <0>        -0.0438
     19 C12         0.1253   -9.4066   -0.4804 C.ar      1 <0>        -0.6444
     20 C13        -1.0814   -8.7487   -0.6286 C.ar      1 <0>        -0.0439
     21 C14        -1.1008   -7.3983   -0.9233 C.ar      1 <0>        -0.0456
     22 S2          0.1500  -11.1270   -0.1005 S.o2      1 <0>         2.7037
     23 O3         -1.0884  -11.6598   -0.5496 O.2       1 <0>        -0.9633
     24 O4          1.4020  -11.6246   -0.5521 O.2       1 <0>        -0.9633
     25 N2          0.1536  -11.2640    1.5498 N.pl3     1 <0>        -1.2492
     26 H1          1.0042    1.8801    0.0026 H         1 <0>         0.0616
     27 H2         -0.5455    1.8639   -0.8728 H         1 <0>         0.0616
     28 H3         -0.5286    1.8543    0.9071 H         1 <0>         0.0614
     29 H4         -0.0065   -0.1406   -2.1317 H         1 <0>         0.1156
     30 H5          0.0269   -2.6011   -2.1509 H         1 <0>         0.1055
     31 H6          0.0473   -2.6246    2.1259 H         1 <0>         0.1293
     32 H7          2.2209   -6.8248   -1.0468 H         1 <0>         0.1495
     33 H8          2.2554   -9.2287   -0.5148 H         1 <0>         0.1481
     34 H9         -2.0091   -9.2892   -0.5116 H         1 <0>         0.1481
     35 H10        -2.0436   -6.8835   -1.0354 H         1 <0>         0.1496
     36 H11         0.1429  -10.4671    2.1026 H         1 <0>         0.4193
     37 H12         0.1664  -12.1412    1.9636 H         1 <0>         0.4199
@<TRIPOS>BOND
     1    1    2 1
     2    1   26 1
     3    1   27 1
     4    1   28 1
     5    2    7 ar
     6    2    3 ar
     7    3    4 ar
     8    3   29 1
     9    4    5 ar
    10    4   30 1
    11    5    6 ar
    12    5   12 1
    13    6    7 ar
    14    6   31 1
    15    7    8 1
    16    8    9 1
    17    8   10 1
    18    8   11 1
    19   12   13 1
    20   13   14 2
    21   13   15 2
    22   13   16 1
    23   16   21 ar
    24   16   17 ar
    25   17   18 ar
    26   17   32 1
    27   18   19 ar
    28   18   33 1
    29   19   20 ar
    30   19   22 1
    31   20   21 ar
    32   20   34 1
    33   21   35 1
    34   22   23 2
    35   22   24 2
    36   22   25 1
    37   25   36 1
    38   25   37 1
@<TRIPOS>MOLECULE
ZINC61685226
   24    25     0     0     0
SMALL
USER_CHARGES

@<TRIPOS>ATOM
      1 C1          0.0586    1.3600    0.4520 C.ar      1 <0>        -0.1796
      2 C2          1.2557    2.0432    0.3480 C.ar      1 <0>        -0.0043
      3 C3          2.3877    1.3923   -0.1088 C.ar      1 <0>        -0.1519
      4 C4          2.3254    0.0559   -0.4626 C.ar      1 <0>         0.0451
      5 C5          1.1316   -0.6323   -0.3603 C.ar      1 <0>        -0.6586
      6 C6         -0.0069    0.0188    0.0978 C.ar      1 <0>         0.3170
      7 N1         -1.2150   -0.6743    0.2022 N.pl3     1 <0>        -0.8559
      8 S1          1.0531   -2.3337   -0.8115 S.o2      1 <0>         2.5907
      9 O1         -0.3040   -2.6066   -1.1325 O.2       1 <0>        -1.0374
     10 O2          2.1135   -2.5596   -1.7301 O.2       1 <0>        -1.0047
     11 N2          1.4055   -3.2166    0.5445 N.2       1 <0>        -1.0718
     12 C7          1.4181   -4.6225    0.4851 C.2       1 <0>         0.1125
     13 C8          1.1570   -5.4063   -0.6581 C.2       1 <0>         0.0024
     14 N3          1.2624   -6.6607   -0.3214 N.2       1 <0>        -0.3364
     15 O3          1.5956   -6.7191    1.0537 O.3       1 <0>        -0.0956
     16 C9          1.6881   -5.4579    1.5115 C.2       1 <0>        -0.1005
     17 Br1         3.8754   -0.8291   -1.0871 Br        1 <0>         0.0057
     18 Br2         1.3460    3.8695    0.8302 Br        1 <0>        -0.0461
     19 H1         -0.8238    1.8676    0.8127 H         1 <0>         0.1389
     20 H2          3.3218    1.9283   -0.1900 H         1 <0>         0.1409
     21 H3         -2.0548   -0.1889    0.1955 H         1 <0>         0.3988
     22 H4         -1.2143   -1.6410    0.2815 H         1 <0>         0.4211
     23 H5          0.9121   -5.0320   -1.6411 H         1 <0>         0.1738
     24 H6          1.9322   -5.1650    2.5219 H         1 <0>         0.1961
@<TRIPOS>BOND
     1    1    6 ar
     2    1    2 ar
     3    1   19 1
     4    2    3 ar
     5    2   18 1
     6    3    4 ar
     7    3   20 1
     8    4    5 ar
     9    4   17 1
    10    5    6 ar
    11    5    8 1
    12    6    7 1
    13    7   21 1
    14    7   22 1
    15    8    9 2
    16    8   10 2
    17    8   11 1
    18   11   12 1
    19   12   16 2
    20   12   13 1
    21   13   14 2
    22   13   23 1
    23   14   15 1
    24   15   16 1
    25   16   24 1
@<TRIPOS>MOLECULE
ZINC64799377
   39    41     0     0     0
SMALL
USER_CHARGES

@<TRIPOS>ATOM
      1 C1         -0.0168    1.3862    0.0097 C.ar      1 <0>         0.0963
      2 C2          1.2119    2.0561    0.0015 C.ar      1 <0>        -0.3031
      3 C3          2.3978    1.3107   -0.0138 C.ar      1 <0>         0.2158
      4 N1          2.3832   -0.0022   -0.0207 N.ar      1 <0>        -0.5142
      5 C4          1.2417   -0.6894   -0.0135 C.ar      1 <0>         0.4457
      6 C5          0.0021   -0.0041    0.0020 C.ar      1 <0>        -0.3314
      7 C6         -1.2346   -0.7982    0.0095 C.2       1 <0>         0.5695
      8 O1         -2.3284   -0.2649    0.0224 O.2       1 <0>        -0.5436
      9 N2         -1.1091   -2.1461    0.0011 N.am      1 <0>        -0.6699
     10 H1         -1.9022   -2.7045    0.0053 H         1 <0>         0.4059
     11 C7          0.1240   -2.7219   -0.0137 C.2       1 <0>         0.6304
     12 O2          0.2020   -4.0683   -0.0217 O.3       1 <0>        -0.6504
     13 N3          1.2378   -2.0351   -0.0202 N.2       1 <0>        -0.6063
     14 C8          1.2576    3.5310    0.0085 C.2       1 <0>         0.5862
     15 O3          0.2240    4.1713    0.0214 O.2       1 <0>        -0.5460
     16 N4          2.4451    4.1684    0.0006 N.am      1 <0>        -0.7355
     17 C9          2.4905    5.6327    0.0075 C.3       1 <0>         0.1521
     18 C10         2.3941    6.1391    1.4481 C.3       1 <0>        -0.1265
     19 C11         2.4415    7.6684    1.4553 C.3       1 <0>        -0.1210
     20 C12         3.7583    8.1407    0.8357 C.3       1 <0>        -0.1160
     21 C13         3.8547    7.6343   -0.6048 C.3       1 <0>        -0.1158
     22 C14         3.8073    6.1051   -0.6121 C.3       1 <0>        -0.1413
     23 C15         3.9037    5.5986   -2.0526 C.3       1 <0>         0.4533
     24 F1          2.8311    6.1020   -2.7966 F         1 <0>        -0.1794
     25 F2          5.1077    6.0306   -2.6192 F         1 <0>        -0.1847
     26 F3          3.8603    4.2003   -2.0592 F         1 <0>        -0.1757
     27 H2         -0.9490    1.9312    0.0259 H         1 <0>         0.1438
     28 H3          3.3460    1.8278   -0.0204 H         1 <0>         0.1495
     29 H4          3.2697    3.6577   -0.0097 H         1 <0>         0.4008
     30 H5          1.6549    6.0249   -0.5721 H         1 <0>         0.1022
     31 H6          1.4560    5.8026    1.8895 H         1 <0>         0.0799
     32 H7          3.2297    5.7470    2.0278 H         1 <0>         0.0692
     33 H8          1.6059    8.0606    0.8756 H         1 <0>         0.0682
     34 H9          2.3729    8.0292    2.4816 H         1 <0>         0.0700
     35 H10         3.7921    9.2302    0.8409 H         1 <0>         0.0724
     36 H11         4.5939    7.7486    1.4154 H         1 <0>         0.0680
     37 H12         3.0191    8.0265   -1.1845 H         1 <0>         0.0800
     38 H13         4.7928    7.9708   -1.0463 H         1 <0>         0.0810
     39 H14         4.6429    5.7129   -0.0324 H         1 <0>         0.1206
@<TRIPOS>BOND
     1    1    6 ar
     2    1    2 ar
     3    1   27 1
     4    2    3 ar
     5    2   14 1
     6    3    4 ar
     7    3   28 1
     8    4    5 ar
     9    5   13 1
    10    5    6 ar
    11    6    7 1
    12    7    8 2
    13    7    9 am
    14    9   10 1
    15    9   11 1
    16   11   12 1
    17   11   13 2
    18   14   15 2
    19   14   16 am
    20   16   17 1
    21   16   29 1
    22   17   22 1
    23   17   18 1
    24   17   30 1
    25   18   19 1
    26   18   31 1
    27   18   32 1
    28   19   20 1
    29   19   33 1
    30   19   34 1
    31   20   21 1
    32   20   35 1
    33   20   36 1
    34   21   22 1
    35   21   37 1
    36   21   38 1
    37   22   23 1
    38   22   39 1
    39   23   24 1
    40   23   25 1
    41   23   26 1
@<TRIPOS>MOLECULE
ZINC13280133
   54    57     0     0     0
SMALL
USER_CHARGES
3-(4-fluorophenyl)-4-oxo-2-[2-oxo-2-(2,4,5-trimethylphenyl)ethyl]sulfanyl-quinazoline-7-carboxylic acid
@<TRIPOS>ATOM
      1 C1          2.5237    1.6597   -3.1896 C.3       1 <0>        -0.1244
      2 C2          1.2099    2.2528   -2.7502 C.ar      1 <0>        -0.0465
      3 C3          0.0301    1.5725   -2.9981 C.ar      1 <0>        -0.1359
      4 C4         -1.1763    2.1111   -2.6043 C.ar      1 <0>        -0.0213
      5 C5         -1.2052    3.3430   -1.9424 C.ar      1 <0>        -0.1720
      6 C6         -0.0090    4.0238   -1.6952 C.ar      1 <0>        -0.0602
      7 C7          1.1892    3.4744   -2.1004 C.ar      1 <0>        -0.1028
      8 C8          2.4796    4.2062   -1.8346 C.3       1 <0>        -0.1211
      9 C9         -2.4882    3.9225   -1.5136 C.2       1 <0>         0.4155
     10 O1         -3.5129    3.2864   -1.6394 O.2       1 <0>        -0.4342
     11 C10        -2.5286    5.3063   -0.9182 C.3       1 <0>        -0.1575
     12 S1         -4.2363    5.7314   -0.4951 S.3       1 <0>         0.0453
     13 C11        -3.9955    7.3492    0.1602 C.2       1 <0>         0.3423
     14 N1         -2.7792    7.8348    0.1947 N.2       1 <0>        -0.5066
     15 C12        -2.5230    9.0706    0.6845 C.ar      1 <0>         0.1364
     16 C13        -1.2244    9.5863    0.7196 C.ar      1 <0>        -0.0710
     17 C14        -1.0091   10.8599    1.2309 C.ar      1 <0>        -0.0652
     18 C15        -2.0817   11.6249    1.7079 C.ar      1 <0>        -0.0850
     19 C16        -3.3543   11.1316    1.6790 C.ar      1 <0>        -0.0616
     20 C17        -3.5936    9.8553    1.1701 C.ar      1 <0>        -0.1929
     21 C18        -4.9490    9.2857    1.1194 C.2       1 <0>         0.5592
     22 O2         -5.9117    9.9119    1.5227 O.2       1 <0>        -0.5020
     23 N2         -5.0874    8.0424    0.6041 N.am      1 <0>        -0.4905
     24 C19        -6.3591    7.4581    0.5298 C.ar      1 <0>         0.0925
     25 C20        -6.7866    6.5940    1.5290 C.ar      1 <0>        -0.0613
     26 C21        -8.0421    6.0234    1.4566 C.ar      1 <0>        -0.1435
     27 C22        -8.8702    6.3036    0.3825 C.ar      1 <0>         0.1166
     28 C23        -8.4436    7.1612   -0.6177 C.ar      1 <0>        -0.1440
     29 C24        -7.1910    7.7382   -0.5460 C.ar      1 <0>        -0.0582
     30 F1        -10.0959    5.7401    0.3107 F         1 <0>        -0.1343
     31 C25         0.3625   11.4128    1.2715 C.2       1 <0>         0.4879
     32 O3          1.2953   10.7537    0.8588 O.co2     1 <0>        -0.6208
     33 C26        -2.4601    1.3718   -2.8807 C.3       1 <0>        -0.1230
     34 H1          2.7542    1.9961   -4.2005 H         1 <0>         0.0763
     35 H2          3.3131    1.9819   -2.5106 H         1 <0>         0.0757
     36 H3          2.4541    0.5720   -3.1757 H         1 <0>         0.0680
     37 H4          0.0544    0.6193   -3.5054 H         1 <0>         0.1281
     38 H5         -0.0235    4.9772   -1.1879 H         1 <0>         0.1377
     39 H6          2.7050    4.8623   -2.6753 H         1 <0>         0.0746
     40 H7          2.3798    4.8005   -0.9264 H         1 <0>         0.0726
     41 H8          3.2872    3.4849   -1.7099 H         1 <0>         0.0711
     42 H9         -1.9647    5.3306   -0.0927 H         1 <0>         0.1201
     43 H10        -2.1441    6.0247   -1.6422 H         1 <0>         0.1363
     44 H11        -0.3954    8.9997    0.3522 H         1 <0>         0.1456
     45 H12        -1.8999   12.6137    2.1023 H         1 <0>         0.1445
     46 H13        -4.1745   11.7289    2.0490 H         1 <0>         0.1349
     47 H14        -6.1392    6.3714    2.3643 H         1 <0>         0.1396
     48 H15        -8.3767    5.3547    2.2359 H         1 <0>         0.1459
     49 H16        -9.0908    7.3785   -1.4545 H         1 <0>         0.1456
     50 H17        -6.8585    8.4067   -1.3265 H         1 <0>         0.1386
     51 H18        -2.7502    0.8044   -1.9963 H         1 <0>         0.0765
     52 H19        -3.2451    2.0865   -3.1275 H         1 <0>         0.0910
     53 H20        -2.3134    0.6895   -3.7180 H         1 <0>         0.0599
     54 O4          0.5767   12.6471    1.7661 O.co2     1 <0>        -0.7426
@<TRIPOS>BOND
     1    1    2 1
     2    1   34 1
     3    1   35 1
     4    1   36 1
     5    2    7 ar
     6    2    3 ar
     7    3    4 ar
     8    3   37 1
     9    4    5 ar
    10    4   33 1
    11    5    6 ar
    12    5    9 1
    13    6    7 ar
    14    6   38 1
    15    7    8 1
    16    8   39 1
    17    8   40 1
    18    8   41 1
    19    9   10 2
    20    9   11 1
    21   11   12 1
    22   11   42 1
    23   11   43 1
    24   12   13 1
    25   13   23 1
    26   13   14 2
    27   14   15 1
    28   15   20 ar
    29   15   16 ar
    30   16   17 ar
    31   16   44 1
    32   17   18 ar
    33   17   31 1
    34   18   19 ar
    35   18   45 1
    36   19   20 ar
    37   19   46 1
    38   20   21 1
    39   21   22 2
    40   21   23 am
    41   23   24 1
    42   24   29 ar
    43   24   25 ar
    44   25   26 ar
    45   25   47 1
    46   26   27 ar
    47   26   48 1
    48   27   28 ar
    49   27   30 1
    50   28   29 ar
    51   28   49 1
    52   29   50 1
    53   31   32 2
    54   31   54 1
    55   33   51 1
    56   33   52 1
    57   33   53 1
@<TRIPOS>MOLECULE
ZINC25582369
   48    52     0     0     0
SMALL
USER_CHARGES
(E)-2-(6-bromo-4-oxo-3H-quinazolin-2-yl)-3-(1,3-diphenylpyrazol-4-yl)prop-2-enenitrile
@<TRIPOS>ATOM
      1 C1          0.2501   -2.4469   -1.3118 C.ar      1 <0>        -0.1082
      2 C2          0.9954   -1.5601   -2.0680 C.ar      1 <0>        -0.1243
      3 C3          0.8979   -0.2027   -1.8394 C.ar      1 <0>        -0.0874
      4 C4          0.0456    0.2744   -0.8443 C.ar      1 <0>        -0.0194
      5 C5         -0.6994   -0.6246   -0.0821 C.ar      1 <0>        -0.0858
      6 C6         -0.5975   -1.9795   -0.3234 C.ar      1 <0>        -0.1158
      7 C7         -0.0632    1.7309   -0.5935 C.2       1 <0>         0.1565
      8 C8         -1.2752    2.4615   -0.1989 C.2       1 <0>        -0.2075
      9 C9         -0.9046    3.7908   -0.0767 C.2       1 <0>         0.0790
     10 N1          0.4038    3.8808   -0.3738 N.pl3     1 <0>        -0.3107
     11 N2          0.9044    2.6144   -0.6876 N.2       1 <0>        -0.2773
     12 C10         1.1517    5.0650   -0.3697 C.ar      1 <0>         0.1565
     13 C11         0.5437    6.2709   -0.0462 C.ar      1 <0>        -0.1373
     14 C12         1.2852    7.4360   -0.0375 C.ar      1 <0>        -0.0901
     15 C13         2.6292    7.4044   -0.3617 C.ar      1 <0>        -0.1294
     16 C14         3.2363    6.2060   -0.6899 C.ar      1 <0>        -0.0979
     17 C15         2.5015    5.0366   -0.6948 C.ar      1 <0>        -0.1179
     18 C16        -2.6063    1.8977    0.0234 C.2       1 <0>         0.0513
     19 C17        -3.5531    2.6191    0.7184 C.2       1 <0>        -0.0199
     20 C18        -3.1927    3.8540    1.3475 C.1       1 <0>         0.2881
     21 N3         -2.9068    4.8336    1.8465 N.1       1 <0>        -0.4417
     22 C19        -4.9341    2.1204    0.8139 C.ar      1 <0>         0.4229
     23 N4         -5.8503    2.8621    1.5122 N.ar      1 <0>        -0.6727
     24 C20        -7.1310    2.4391    1.6241 C.ar      1 <0>         0.5213
     25 O1         -7.9578    3.0856    2.2407 O.3       1 <0>        -0.5739
     26 C21        -7.4864    1.1702    0.9728 C.ar      1 <0>        -0.2594
     27 C22        -8.7787    0.6514    1.0307 C.ar      1 <0>         0.0008
     28 C23        -9.0575   -0.5432    0.4013 C.ar      1 <0>        -0.1581
     29 C24        -8.0629   -1.2289   -0.2860 C.ar      1 <0>        -0.0602
     30 C25        -6.7902   -0.7380   -0.3554 C.ar      1 <0>        -0.1389
     31 C26        -6.4760    0.4714    0.2728 C.ar      1 <0>         0.2185
     32 N5         -5.2332    0.9889    0.2222 N.ar      1 <0>        -0.6193
     33 Br1       -10.8079   -1.2550    0.4742 Br        1 <0>        -0.0839
     34 H1          0.3299   -3.5084   -1.4941 H         1 <0>         0.1233
     35 H2          1.6551   -1.9308   -2.8385 H         1 <0>         0.1243
     36 H3          1.4802    0.4887   -2.4304 H         1 <0>         0.1251
     37 H4         -1.3578   -0.2611    0.6930 H         1 <0>         0.1343
     38 H5         -1.1772   -2.6765    0.2635 H         1 <0>         0.1299
     39 H6         -1.5517    4.6090    0.2030 H         1 <0>         0.1892
     40 H7         -0.5070    6.2970    0.2024 H         1 <0>         0.1320
     41 H8          0.8140    8.3735    0.2184 H         1 <0>         0.1342
     42 H9          3.2060    8.3174   -0.3582 H         1 <0>         0.1285
     43 H10         4.2860    6.1846   -0.9429 H         1 <0>         0.1317
     44 H11         2.9763    4.1010   -0.9509 H         1 <0>         0.1386
     45 H12        -2.8518    0.8979   -0.3641 H         1 <0>         0.1718
     46 H13        -9.5549    1.1806    1.5635 H         1 <0>         0.1272
     47 H14        -8.3000   -2.1635   -0.7726 H         1 <0>         0.1219
     48 H15        -6.0285   -1.2823   -0.8939 H         1 <0>         0.1299
@<TRIPOS>BOND
     1    1    6 ar
     2    1    2 ar
     3    1   34 1
     4    2    3 ar
     5    2   35 1
     6    3    4 ar
     7    3   36 1
     8    4    5 ar
     9    4    7 1
    10    5    6 ar
    11    5   37 1
    12    6   38 1
    13    7   11 2
    14    7    8 1
    15    8    9 2
    16    8   18 1
    17    9   10 1
    18    9   39 1
    19   10   11 1
    20   10   12 1
    21   12   17 ar
    22   12   13 ar
    23   13   14 ar
    24   13   40 1
    25   14   15 ar
    26   14   41 1
    27   15   16 ar
    28   15   42 1
    29   16   17 ar
    30   16   43 1
    31   17   44 1
    32   18   19 2
    33   18   45 1
    34   19   20 1
    35   19   22 1
    36   20   21 3
    37   22   32 ar
    38   22   23 ar
    39   23   24 ar
    40   24   25 1
    41   24   26 ar
    42   26   31 ar
    43   26   27 ar
    44   27   28 ar
    45   27   46 1
    46   28   29 ar
    47   28   33 1
    48   29   30 ar
    49   29   47 1
    50   30   31 ar
    51   30   48 1
    52   31   32 ar
@<TRIPOS>MOLECULE
ZINC34923423
   56    59     0     0     0
SMALL
USER_CHARGES

@<TRIPOS>ATOM
      1 C1          2.7172    1.3269    0.2173 C.3       1 <0>        -0.1446
      2 C2          2.1096   -0.0750    0.1378 C.3       1 <0>        -0.0893
      3 C3          0.8131   -0.1155    0.9499 C.3       1 <0>        -0.1283
      4 C4          0.1897   -1.5105    0.8397 C.3       1 <0>         0.1351
      5 N1          1.1883   -2.5083    1.2471 N.pl3     1 <0>        -0.6398
      6 C5          2.5036   -2.4994    0.5925 C.3       1 <0>         0.1323
      7 C6          3.1011   -1.0933    0.7054 C.3       1 <0>        -0.1275
      8 C7          0.8956   -3.4390    2.2297 C.2       1 <0>         0.5037
      9 O1          1.8934   -3.9765    2.9728 O.3       1 <0>        -0.7018
     10 C8         -0.3808   -3.8101    2.4469 C.2       1 <0>        -0.4635
     11 C9         -0.7089   -4.6850    3.5817 C.2       1 <0>         0.2320
     12 C10         0.2234   -5.0163    4.5020 C.2       1 <0>        -0.2998
     13 S1         -0.7047   -6.0607    5.6075 S.3       1 <0>         0.1364
     14 C11        -2.1911   -6.0014    4.8301 C.2       1 <0>         0.3370
     15 N2         -3.3484   -6.5611    5.1167 N.2       1 <0>        -0.5932
     16 C12        -4.4521   -6.4221    4.4004 C.2       1 <0>         0.3115
     17 C13        -4.4520   -5.6452    3.2578 C.2       1 <0>        -0.3951
     18 C14        -3.1572   -4.9697    2.8645 C.3       1 <0>         0.2628
     19 H1         -2.8952   -5.3049    1.8609 H         1 <0>         0.0755
     20 N3         -1.9820   -5.1927    3.7481 N.pl3     1 <0>        -0.5115
     21 C15        -3.4088   -3.4852    2.8021 C.ar      1 <0>        -0.0635
     22 C16        -3.4774   -2.8464    1.5781 C.ar      1 <0>        -0.0665
     23 C17        -3.7082   -1.4848    1.5208 C.ar      1 <0>        -0.1215
     24 C18        -3.8705   -0.7609    2.6875 C.ar      1 <0>        -0.1104
     25 C19        -3.8022   -1.3983    3.9117 C.ar      1 <0>        -0.1188
     26 C20        -3.5769   -2.7624    3.9696 C.ar      1 <0>        -0.0136
     27 Cl1        -3.4974   -3.5650    5.5068 Cl        1 <0>        -0.0662
     28 C21        -5.6119   -5.4890    2.4892 C.2       1 <0>         0.5338
     29 O2         -6.6224   -6.1059    2.7787 O.2       1 <0>        -0.5503
     30 O3         -5.6109   -4.6542    1.4265 O.3       1 <0>        -0.3583
     31 C22        -6.8568   -4.4577    0.7548 C.3       1 <0>         0.0421
     32 C23        -5.7177   -7.1161    4.8335 C.3       1 <0>        -0.0925
     33 H2          3.6401    1.3563   -0.3621 H         1 <0>         0.0504
     34 H3          2.0112    2.0523   -0.1870 H         1 <0>         0.0500
     35 H4          2.9333    1.5708    1.2574 H         1 <0>         0.0521
     36 H5          1.8941   -0.3189   -0.9025 H         1 <0>         0.0645
     37 H6          1.0314    0.1039    1.9950 H         1 <0>         0.0623
     38 H7          0.1161    0.6262    0.5598 H         1 <0>         0.0614
     39 H8         -0.6795   -1.5751    1.4943 H         1 <0>         0.0795
     40 H9         -0.1122   -1.6955   -0.1912 H         1 <0>         0.0407
     41 H10         3.1613   -3.2164    1.0839 H         1 <0>         0.0827
     42 H11         2.3905   -2.7650   -0.4586 H         1 <0>         0.0391
     43 H12         4.0327   -1.0475    0.1413 H         1 <0>         0.0593
     44 H13         3.2979   -0.8647    1.7528 H         1 <0>         0.0634
     45 H14        -1.1633   -3.4649    1.7874 H         1 <0>         0.0941
     46 H15         1.2618   -4.7238    4.5540 H         1 <0>         0.2310
     47 H16        -3.3503   -3.4113    0.6665 H         1 <0>         0.1264
     48 H17        -3.7613   -0.9862    0.5643 H         1 <0>         0.1232
     49 H18        -4.0505    0.3030    2.6421 H         1 <0>         0.1241
     50 H19        -3.9287   -0.8327    4.8230 H         1 <0>         0.1246
     51 H20        -6.7163   -3.7673   -0.0769 H         1 <0>         0.0889
     52 H21        -7.2203   -5.4131    0.3764 H         1 <0>         0.0516
     53 H22        -7.5842   -4.0427    1.4525 H         1 <0>         0.0498
     54 H23        -5.5291   -7.6786    5.7479 H         1 <0>         0.0635
     55 H24        -6.4945   -6.3738    5.0173 H         1 <0>         0.0830
     56 H25        -6.0451   -7.7978    4.0485 H         1 <0>         0.0880
@<TRIPOS>BOND
     1    1    2 1
     2    1   33 1
     3    1   34 1
     4    1   35 1
     5    2    7 1
     6    2    3 1
     7    2   36 1
     8    3    4 1
     9    3   37 1
    10    3   38 1
    11    4    5 1
    12    4   39 1
    13    4   40 1
    14    5    6 1
    15    5    8 1
    16    6    7 1
    17    6   41 1
    18    6   42 1
    19    7   43 1
    20    7   44 1
    21    8    9 1
    22    8   10 2
    23   10   11 1
    24   10   45 1
    25   11   20 1
    26   11   12 2
    27   12   13 1
    28   12   46 1
    29   13   14 1
    30   14   20 1
    31   14   15 2
    32   15   16 1
    33   16   17 2
    34   16   32 1
    35   17   18 1
    36   17   28 1
    37   18   19 1
    38   18   20 1
    39   18   21 1
    40   21   26 ar
    41   21   22 ar
    42   22   23 ar
    43   22   47 1
    44   23   24 ar
    45   23   48 1
    46   24   25 ar
    47   24   49 1
    48   25   26 ar
    49   25   50 1
    50   26   27 1
    51   28   29 2
    52   28   30 1
    53   30   31 1
    54   31   51 1
    55   31   52 1
    56   31   53 1
    57   32   54 1
    58   32   55 1
    59   32   56 1
@<TRIPOS>MOLECULE
ZINC39645851
   60    64     0     0     0
SMALL
USER_CHARGES

@<TRIPOS>ATOM
      1 C1          2.2512    1.0034    0.9116 C.3       1 <0>        -0.1729
      2 C2          2.2005    1.5121    2.3293 C.ar      1 <0>         0.0129
      3 C3          3.2345    2.2912    2.8188 C.ar      1 <0>        -0.1526
      4 C4          3.1951    2.7598    4.1151 C.ar      1 <0>        -0.0271
      5 C5          2.1076    2.4466    4.9349 C.ar      1 <0>        -0.1521
      6 C6          1.0674    1.6601    4.4338 C.ar      1 <0>        -0.0043
      7 C7          1.1179    1.2027    3.1334 C.ar      1 <0>        -0.7037
      8 S1         -0.1960    0.2160    2.4972 S.o2      1 <0>         2.6813
      9 O1         -1.0813    1.1022    1.8264 O.2       1 <0>        -0.9354
     10 O2          0.4078   -0.8942    1.8474 O.2       1 <0>        -0.9574
     11 O3         -0.9592   -0.3408    3.6905 O.3       1 <0>        -0.6579
     12 C8         -0.3436   -1.3873    4.3010 C.ar      1 <0>         0.0606
     13 C9         -0.5034   -2.6746    3.8082 C.ar      1 <0>        -0.0943
     14 C10         0.1250   -3.7290    4.4350 C.ar      1 <0>        -0.1105
     15 C11         0.9182   -3.5161    5.5562 C.ar      1 <0>        -0.0515
     16 C12         1.0794   -2.2387    6.0458 C.ar      1 <0>        -0.0545
     17 C13         0.4509   -1.1742    5.4143 C.ar      1 <0>        -0.1123
     18 C14         1.9309   -1.9345    7.2508 C.3       1 <0>        -0.0901
     19 C15         2.1897   -3.2038    8.0597 C.3       1 <0>        -0.1125
     20 C16         2.7189   -4.2834    7.1076 C.3       1 <0>        -0.0725
     21 H1          3.0903   -5.1370    7.6745 H         1 <0>         0.0899
     22 C17         1.5696   -4.7147    6.1910 C.3       1 <0>        -0.0431
     23 H2          0.8221   -5.2214    6.8014 H         1 <0>         0.0856
     24 C18         2.0253   -5.6954    5.1178 C.3       1 <0>        -0.1152
     25 C19         3.2179   -5.1465    4.3175 C.3       1 <0>        -0.0992
     26 C20         4.3209   -4.8389    5.3112 C.3       1 <0>        -0.1252
     27 C21         3.8266   -3.7026    6.2459 C.3       1 <0>        -0.0853
     28 H3          3.4509   -2.8699    5.6513 H         1 <0>         0.0910
     29 C22         5.1135   -3.3221    6.9893 C.3       1 <0>        -0.1118
     30 C23         6.1824   -3.3826    5.8641 C.3       1 <0>        -0.1801
     31 C24         5.6031   -4.2953    4.7532 C.2       1 <0>         0.3798
     32 O4          6.0956   -4.5511    3.6807 O.2       1 <0>        -0.4407
     33 C25         4.6123   -6.0794    6.1580 C.3       1 <0>        -0.1391
     34 C26         2.0585    2.9438    6.3231 C.2       1 <0>         0.5226
     35 O5          2.9708    3.6318    6.7588 O.co2     1 <0>        -0.6813
     36 O6          1.1054    2.6680    7.0380 O.co2     1 <0>        -0.6817
     37 H4          1.6897    1.6766    0.2638 H         1 <0>         0.0798
     38 H5          3.2881    0.9591    0.5783 H         1 <0>         0.0816
     39 H6          1.8125    0.0066    0.8674 H         1 <0>         0.1036
     40 H7          4.0743    2.5324    2.1840 H         1 <0>         0.1270
     41 H8          4.0029    3.3670    4.4959 H         1 <0>         0.1363
     42 H9          0.2239    1.4142    5.0618 H         1 <0>         0.1378
     43 H10        -1.1179   -2.8496    2.9375 H         1 <0>         0.1372
     44 H11        -0.0005   -4.7307    4.0512 H         1 <0>         0.1378
     45 H12         0.5792   -0.1726    5.7973 H         1 <0>         0.1518
     46 H13         2.8829   -1.5173    6.9222 H         1 <0>         0.0857
     47 H14         1.4178   -1.2063    7.8790 H         1 <0>         0.0866
     48 H15         2.9302   -3.0016    8.8336 H         1 <0>         0.0743
     49 H16         1.2609   -3.5424    8.5189 H         1 <0>         0.0686
     50 H17         2.3166   -6.6323    5.5927 H         1 <0>         0.0722
     51 H18         1.1969   -5.8865    4.4357 H         1 <0>         0.0714
     52 H19         3.5606   -5.8942    3.6023 H         1 <0>         0.0696
     53 H20         2.9260   -4.2365    3.7935 H         1 <0>         0.0714
     54 H21         5.0400   -2.3150    7.3997 H         1 <0>         0.0810
     55 H22         5.3357   -4.0457    7.7737 H         1 <0>         0.0777
     56 H23         6.3454   -2.3875    5.4502 H         1 <0>         0.0942
     57 H24         7.1172   -3.7811    6.2584 H         1 <0>         0.0969
     58 H25         4.9160   -6.9000    5.5080 H         1 <0>         0.0568
     59 H26         5.4141   -5.8582    6.8625 H         1 <0>         0.0611
     60 H27         3.7146   -6.3637    6.7069 H         1 <0>         0.0801
@<TRIPOS>BOND
     1    1    2 1
     2    1   37 1
     3    1   38 1
     4    1   39 1
     5    2    7 ar
     6    2    3 ar
     7    3    4 ar
     8    3   40 1
     9    4    5 ar
    10    4   41 1
    11    5    6 ar
    12    5   34 1
    13    6    7 ar
    14    6   42 1
    15    7    8 1
    16    8    9 2
    17    8   10 2
    18    8   11 1
    19   11   12 1
    20   12   17 ar
    21   12   13 ar
    22   13   14 ar
    23   13   43 1
    24   14   15 ar
    25   14   44 1
    26   15   22 1
    27   15   16 ar
    28   16   17 ar
    29   16   18 1
    30   17   45 1
    31   18   19 1
    32   18   46 1
    33   18   47 1
    34   19   20 1
    35   19   48 1
    36   19   49 1
    37   20   21 1
    38   20   27 1
    39   20   22 1
    40   22   23 1
    41   22   24 1
    42   24   25 1
    43   24   50 1
    44   24   51 1
    45   25   26 1
    46   25   52 1
    47   25   53 1
    48   26   31 1
    49   26   27 1
    50   26   33 1
    51   27   28 1
    52   27   29 1
    53   29   30 1
    54   29   54 1
    55   29   55 1
    56   30   31 1
    57   30   56 1
    58   30   57 1
    59   31   32 2
    60   33   58 1
    61   33   59 1
    62   33   60 1
    63   34   35 2
    64   34   36 1
@<TRIPOS>MOLECULE
ZINC24543681
   57    62     0     0     0
SMALL
USER_CHARGES

@<TRIPOS>ATOM
      1 C1         -0.0173    1.4248    0.0099 C.3       1 <0>         0.0259
      2 O1          0.0021   -0.0041    0.0020 O.3       1 <0>        -0.3081
      3 C2         -1.2011   -0.6379    0.0101 C.ar      1 <0>         0.1445
      4 C3         -2.3748    0.1005    0.0195 C.ar      1 <0>        -0.2047
      5 C4         -3.5982   -0.5428    0.0277 C.ar      1 <0>         0.0448
      6 C5         -3.6572   -1.9238    0.0266 C.ar      1 <0>        -0.2135
      7 C6         -2.4882   -2.6696    0.0172 C.ar      1 <0>         0.1419
      8 C7         -1.2561   -2.0266    0.0032 C.ar      1 <0>         0.0105
      9 O2         -0.1065   -2.7549   -0.0117 O.3       1 <0>        -0.3126
     10 C8          0.4536   -3.1089    1.2544 C.3       1 <0>         0.0358
     11 O3         -2.5472   -4.0282    0.0166 O.3       1 <0>        -0.3086
     12 C9         -3.8474   -4.6211    0.0259 C.3       1 <0>         0.0289
     13 C10        -4.8712    0.2637    0.0384 C.3       1 <0>         0.1098
     14 H1         -4.6031    1.3202    0.0379 H         1 <0>         0.0566
     15 C11        -5.6113   -0.0365    1.3248 C.ar      1 <0>        -0.1589
     16 C12        -5.0164    0.1931    2.5676 C.ar      1 <0>        -0.0026
     17 C13        -3.7123    0.7099    2.6749 C.ar      1 <0>        -0.1201
     18 C14        -3.1690    0.9196    3.9047 C.ar      1 <0>        -0.1209
     19 C15        -3.8851    0.6295    5.0644 C.ar      1 <0>        -0.1428
     20 C16        -5.1493    0.1278    5.0003 C.ar      1 <0>        -0.0986
     21 C17        -5.7451   -0.1017    3.7500 C.ar      1 <0>        -0.0859
     22 C18        -7.0502   -0.6179    3.6487 C.ar      1 <0>        -0.1042
     23 C19        -7.6094   -0.8334    2.4334 C.ar      1 <0>        -0.1082
     24 C20        -6.9007   -0.5472    1.2448 C.ar      1 <0>         0.1865
     25 N1         -7.4948   -0.7755    0.0446 N.2       1 <0>        -0.6166
     26 C21        -6.9413   -0.5497   -1.1241 C.2       1 <0>         0.3142
     27 C22        -5.6299   -0.0326   -1.2368 C.2       1 <0>        -0.4297
     28 C23        -5.0900    0.1853   -2.4522 C.2       1 <0>         0.4621
     29 O4         -3.8360    0.6825   -2.5310 O.3       1 <0>        -0.6130
     30 O5         -5.7583   -0.0762   -3.5885 O.3       1 <0>        -0.2728
     31 C24        -7.0144   -0.5739   -3.5905 C.ar      1 <0>         0.1569
     32 C25        -7.6636   -0.8284   -2.3838 C.ar      1 <0>        -0.1225
     33 C26        -8.9572   -1.3405   -2.3815 C.ar      1 <0>        -0.0391
     34 C27        -9.5946   -1.5855   -3.5803 C.ar      1 <0>        -0.1670
     35 C28        -8.9502   -1.3235   -4.7790 C.ar      1 <0>        -0.0775
     36 C29        -7.6741   -0.8313   -4.7846 C.ar      1 <0>        -0.1514
     37 H2          1.0053    1.8021    0.0021 H         1 <0>         0.0954
     38 H3         -0.5445    1.7859   -0.8732 H         1 <0>         0.0608
     39 H4         -0.5275    1.7763    0.9067 H         1 <0>         0.0520
     40 H5         -2.3329    1.1797    0.0207 H         1 <0>         0.1285
     41 H6         -4.6151   -2.4227    0.0334 H         1 <0>         0.1242
     42 H7         -0.2648   -3.7070    1.8151 H         1 <0>         0.0394
     43 H8          1.3650   -3.6864    1.0998 H         1 <0>         0.0842
     44 H9          0.6878   -2.2033    1.8141 H         1 <0>         0.0398
     45 H10        -3.7517   -5.7069    0.0243 H         1 <0>         0.0962
     46 H11        -4.3845   -4.3050    0.9202 H         1 <0>         0.0535
     47 H12        -4.3978   -4.3036   -0.8597 H         1 <0>         0.0548
     48 H13        -3.1448    0.9389    1.7850 H         1 <0>         0.1310
     49 H14        -2.1676    1.3165    3.9832 H         1 <0>         0.1114
     50 H15        -3.4306    0.8049    6.0283 H         1 <0>         0.1116
     51 H16        -5.6916   -0.0929    5.9078 H         1 <0>         0.1164
     52 H17        -7.6092   -0.8440    4.5446 H         1 <0>         0.1186
     53 H18        -8.6119   -1.2304    2.3722 H         1 <0>         0.1201
     54 H19        -9.4590   -1.5453   -1.4474 H         1 <0>         0.1387
     55 H20       -10.5988   -1.9830   -3.5847 H         1 <0>         0.1238
     56 H21        -9.4574   -1.5189   -5.7123 H         1 <0>         0.1284
     57 H22        -7.1836   -0.6338   -5.7263 H         1 <0>         0.1320
@<TRIPOS>BOND
     1    1    2 1
     2    1   37 1
     3    1   38 1
     4    1   39 1
     5    2    3 1
     6    3    8 ar
     7    3    4 ar
     8    4    5 ar
     9    4   40 1
    10    5    6 ar
    11    5   13 1
    12    6    7 ar
    13    6   41 1
    14    7    8 ar
    15    7   11 1
    16    8    9 1
    17    9   10 1
    18   10   42 1
    19   10   43 1
    20   10   44 1
    21   11   12 1
    22   12   45 1
    23   12   46 1
    24   12   47 1
    25   13   14 1
    26   13   27 1
    27   13   15 1
    28   15   24 ar
    29   15   16 ar
    30   16   21 ar
    31   16   17 ar
    32   17   18 ar
    33   17   48 1
    34   18   19 ar
    35   18   49 1
    36   19   20 ar
    37   19   50 1
    38   20   21 ar
    39   20   51 1
    40   21   22 ar
    41   22   23 ar
    42   22   52 1
    43   23   24 ar
    44   23   53 1
    45   24   25 1
    46   25   26 2
    47   26   32 1
    48   26   27 1
    49   27   28 2
    50   28   29 1
    51   28   30 1
    52   30   31 1
    53   31   36 ar
    54   31   32 ar
    55   32   33 ar
    56   33   34 ar
    57   33   54 1
    58   34   35 ar
    59   34   55 1
    60   35   36 ar
    61   35   56 1
    62   36   57 1
@<TRIPOS>MOLECULE
ZINC02220011
   59    62     0     0     0
SMALL
USER_CHARGES

@<TRIPOS>ATOM
      1 C1         -4.7421    1.1810   -0.5144 C.3       1 <0>        -0.1530
      2 C2         -4.2881   -0.2057   -0.0543 C.3       1 <0>        -0.1168
      3 C3         -3.0187   -0.6035   -0.8101 C.3       1 <0>        -0.0483
      4 H1         -3.1994   -0.5391   -1.8831 H         1 <0>         0.0756
      5 C4         -1.8793    0.3431   -0.4271 C.3       1 <0>        -0.1452
      6 C5         -2.6407   -2.0168   -0.4483 C.ar      1 <0>        -0.0851
      7 C6         -2.3687   -2.3429    0.8677 C.ar      1 <0>        -0.1072
      8 C7         -2.0220   -3.6372    1.2024 C.ar      1 <0>        -0.1018
      9 C8         -1.9471   -4.6115    0.2160 C.ar      1 <0>         0.1480
     10 C9         -2.2212   -4.2811   -1.1044 C.ar      1 <0>        -0.0930
     11 C10        -2.5721   -2.9860   -1.4321 C.ar      1 <0>        -0.1103
     12 N1         -1.5952   -5.9254    0.5524 N.am      1 <0>        -0.5474
     13 C11        -2.3874   -6.6407    1.3804 C.2       1 <0>         0.5629
     14 O1         -3.4072   -6.1624    1.8420 O.2       1 <0>        -0.5191
     15 C12        -1.9789   -8.0170    1.7066 C.2       1 <0>        -0.2567
     16 C13        -2.7447   -8.8174    2.5535 C.2       1 <0>         0.0899
     17 C14        -2.4189  -10.1709    2.7235 C.2       1 <0>         0.0209
     18 C15        -2.1934  -10.8196    3.9342 C.2       1 <0>        -0.1517
     19 C16        -1.9024  -12.1479    3.6335 C.2       1 <0>        -0.2155
     20 C17        -1.9515  -12.2932    2.2830 C.2       1 <0>         0.0243
     21 N2         -2.2682  -11.1086    1.7216 N.pl3     1 <0>        -0.3653
     22 C18        -2.4231  -10.8577    0.2865 C.3       1 <0>         0.1553
     23 C19        -3.5872  -11.6567   -0.2403 C.ar      1 <0>        -0.1107
     24 C20        -3.3725  -12.8992   -0.8074 C.ar      1 <0>        -0.0960
     25 C21        -4.4401  -13.6321   -1.2907 C.ar      1 <0>        -0.1291
     26 C22        -5.7227  -13.1228   -1.2065 C.ar      1 <0>        -0.1123
     27 C23        -5.9374  -11.8811   -0.6388 C.ar      1 <0>        -0.1237
     28 C24        -4.8700  -11.1499   -0.1515 C.ar      1 <0>        -0.0599
     29 C25        -5.1046   -9.7983    0.4723 C.3       1 <0>        -0.1281
     30 C26        -0.7729   -8.5002    1.1244 C.2       1 <0>         0.4839
     31 O2         -0.3427   -9.7536    1.3828 O.3       1 <0>        -0.6181
     32 N3         -0.0800   -7.7052    0.3271 N.2       1 <0>        -0.6652
     33 C27        -0.4757   -6.4664    0.0448 C.2       1 <0>         0.6653
     34 O3          0.2105   -5.7916   -0.7025 O.2       1 <0>        -0.5636
     35 H2         -5.6465    1.4644    0.0240 H         1 <0>         0.0518
     36 H3         -3.9552    1.9072   -0.3104 H         1 <0>         0.0559
     37 H4         -4.9481    1.1595   -1.5845 H         1 <0>         0.0525
     38 H5         -4.0821   -0.1842    1.0158 H         1 <0>         0.0636
     39 H6         -5.0750   -0.9319   -0.2583 H         1 <0>         0.0633
     40 H7         -0.9750    0.0597   -0.9655 H         1 <0>         0.0563
     41 H8         -2.1527    1.3653   -0.6888 H         1 <0>         0.0571
     42 H9         -1.6986    0.2787    0.6459 H         1 <0>         0.0562
     43 H10        -2.4271   -1.5846    1.6345 H         1 <0>         0.1216
     44 H11        -1.8090   -3.8912    2.2303 H         1 <0>         0.1192
     45 H12        -2.1634   -5.0367   -1.8739 H         1 <0>         0.1216
     46 H13        -2.7890   -2.7292   -2.4585 H         1 <0>         0.1223
     47 H14        -3.5888   -8.3950    3.0785 H         1 <0>         0.1430
     48 H15        -2.2356  -10.3773    4.9185 H         1 <0>         0.1337
     49 H16        -1.6767  -12.9257    4.3479 H         1 <0>         0.1304
     50 H17        -1.7705  -13.2122    1.7453 H         1 <0>         0.1517
     51 H18        -2.6066   -9.7961    0.1210 H         1 <0>         0.0934
     52 H19        -1.5130  -11.1547   -0.2346 H         1 <0>         0.1011
     53 H20        -2.3706  -13.2970   -0.8732 H         1 <0>         0.1240
     54 H21        -4.2724  -14.6023   -1.7343 H         1 <0>         0.1218
     55 H22        -6.5569  -13.6952   -1.5848 H         1 <0>         0.1206
     56 H23        -6.9393  -11.4832   -0.5734 H         1 <0>         0.1217
     57 H24        -5.1129   -9.0354   -0.3061 H         1 <0>         0.0725
     58 H25        -6.0635   -9.7989    0.9907 H         1 <0>         0.0707
     59 H26        -4.3072   -9.5830    1.1835 H         1 <0>         0.0712
@<TRIPOS>BOND
     1    1    2 1
     2    1   35 1
     3    1   36 1
     4    1   37 1
     5    2    3 1
     6    2   38 1
     7    2   39 1
     8    3    4 1
     9    3    5 1
    10    3    6 1
    11    5   40 1
    12    5   41 1
    13    5   42 1
    14    6   11 ar
    15    6    7 ar
    16    7    8 ar
    17    7   43 1
    18    8    9 ar
    19    8   44 1
    20    9   10 ar
    21    9   12 1
    22   10   11 ar
    23   10   45 1
    24   11   46 1
    25   12   33 am
    26   12   13 am
    27   13   14 2
    28   13   15 1
    29   15   16 2
    30   15   30 1
    31   16   17 1
    32   16   47 1
    33   17   21 1
    34   17   18 2
    35   18   19 1
    36   18   48 1
    37   19   20 2
    38   19   49 1
    39   20   21 1
    40   20   50 1
    41   21   22 1
    42   22   23 1
    43   22   51 1
    44   22   52 1
    45   23   28 ar
    46   23   24 ar
    47   24   25 ar
    48   24   53 1
    49   25   26 ar
    50   25   54 1
    51   26   27 ar
    52   26   55 1
    53   27   28 ar
    54   27   56 1
    55   28   29 1
    56   29   57 1
    57   29   58 1
    58   29   59 1
    59   30   31 1
    60   30   32 2
    61   32   33 1
    62   33   34 2
@<TRIPOS>MOLECULE
ZINC13192806
   56    58     0     0     0
SMALL
USER_CHARGES
3-[3-[2-[[(3S)-1,1-dioxothiolan-3-yl]-sec-butyl-amino]-2-oxo-ethyl]sulfanyl-5-(2-thienyl)-1,2,4-triazol-4-yl]propanoic acid
@<TRIPOS>ATOM
      1 C1          2.6025   -4.2573    5.1702 C.3       1 <0>        -0.1598
      2 C2          1.3711   -4.9593    5.7463 C.3       1 <0>        -0.1354
      3 C3          0.1074   -4.2227    5.2972 C.3       1 <0>         0.1236
      4 H1          0.0968   -4.1492    4.2097 H         1 <0>         0.1044
      5 C4         -1.1271   -4.9940    5.7683 C.3       1 <0>        -0.1666
      6 N1          0.0939   -2.8777    5.8777 N.am      1 <0>        -0.5915
      7 C5          0.1043   -2.7077    7.3327 C.3       1 <0>         0.1556
      8 H2          0.1185   -3.6870    7.8112 H         1 <0>         0.1131
      9 C6          1.3592   -1.9209    7.7458 C.3       1 <0>        -0.1532
     10 C7          1.1913   -1.4854    9.2295 C.3       1 <0>        -0.5702
     11 S1         -0.5861   -0.9999    9.2392 S.o2      1 <0>         2.3727
     12 O1         -0.6868    0.3912    8.9671 O.2       1 <0>        -0.9206
     13 O2         -1.2043   -1.5320   10.4028 O.2       1 <0>        -0.9426
     14 C8         -1.1670   -1.9407    7.7696 C.3       1 <0>        -0.5994
     15 C9          0.0717   -1.7967    5.0730 C.2       1 <0>         0.5364
     16 O3          0.0605   -0.6832    5.5536 O.2       1 <0>        -0.5076
     17 C10         0.0610   -1.9715    3.5763 C.3       1 <0>        -0.1563
     18 S2          0.0313   -0.3467    2.7792 S.3       1 <0>         0.0994
     19 C11         0.0232   -0.8363    1.0866 C.2       1 <0>         0.1448
     20 N2          0.0359   -2.0687    0.6323 N.2       1 <0>        -0.2959
     21 N3          0.0243   -2.0670   -0.6527 N.2       1 <0>        -0.2632
     22 C12        -0.0027   -0.8307   -1.0996 C.2       1 <0>         0.2646
     23 N4          0.0021   -0.0041    0.0020 N.pl3     1 <0>        -0.4446
     24 C13        -0.0178    1.4608    0.0101 C.3       1 <0>         0.1169
     25 C14         1.4176    1.9904   -0.0008 C.3       1 <0>        -0.1724
     26 C15         1.3972    3.4972    0.0075 C.2       1 <0>         0.4722
     27 O4          0.3427    4.0870    0.0207 O.co2     1 <0>        -0.6348
     28 C16        -0.0297   -0.4099   -2.5097 C.2       1 <0>        -0.1019
     29 C17         0.2450   -1.1433   -3.6363 C.2       1 <0>        -0.1067
     30 C18         0.1479   -0.5288   -4.8645 C.2       1 <0>        -0.1625
     31 C19        -0.2039    0.7817   -4.9235 C.2       1 <0>        -0.1706
     32 S3         -0.4210    1.1898   -3.1992 S.3       1 <0>         0.1081
     33 H3          2.5470   -4.2615    4.0816 H         1 <0>         0.0588
     34 H4          2.6350   -3.2284    5.5284 H         1 <0>         0.0573
     35 H5          3.5027   -4.7821    5.4901 H         1 <0>         0.0585
     36 H6          1.4265   -4.9551    6.8349 H         1 <0>         0.0681
     37 H7          1.3385   -5.9882    5.3880 H         1 <0>         0.0799
     38 H8         -2.0273   -4.4693    5.4484 H         1 <0>         0.0644
     39 H9         -1.1170   -5.9947    5.3364 H         1 <0>         0.0737
     40 H10        -1.1165   -5.0675    6.8558 H         1 <0>         0.0614
     41 H11         2.2405   -2.5544    7.6455 H         1 <0>         0.1024
     42 H12         1.4659   -1.0396    7.1133 H         1 <0>         0.1121
     43 H13         1.8330   -0.6367    9.4663 H         1 <0>         0.1444
     44 H14         1.3763   -2.3176    9.9087 H         1 <0>         0.1378
     45 H15        -1.4988   -1.2628    6.9832 H         1 <0>         0.1549
     46 H16        -1.9628   -2.6344    8.0410 H         1 <0>         0.1420
     47 H17        -0.8239   -2.5364    3.2828 H         1 <0>         0.1269
     48 H18         0.9558   -2.5116    3.2671 H         1 <0>         0.1280
     49 H19        -0.5450    1.8219   -0.8730 H         1 <0>         0.1009
     50 H20        -0.5280    1.8123    0.9069 H         1 <0>         0.1078
     51 H21         1.9448    1.6293    0.8823 H         1 <0>         0.0777
     52 H22         1.9278    1.6388   -0.8976 H         1 <0>         0.0732
     53 H23         0.5283   -2.1828   -3.5613 H         1 <0>         0.1428
     54 H24         0.3538   -1.0807   -5.7697 H         1 <0>         0.1390
     55 H25        -0.3222    1.4143   -5.7908 H         1 <0>         0.1902
     56 O5          2.5504    4.1841    0.0002 O.co2     1 <0>        -0.7584
@<TRIPOS>BOND
     1    1    2 1
     2    1   33 1
     3    1   34 1
     4    1   35 1
     5    2    3 1
     6    2   36 1
     7    2   37 1
     8    3    4 1
     9    3    5 1
    10    3    6 1
    11    5   38 1
    12    5   39 1
    13    5   40 1
    14    6    7 1
    15    6   15 am
    16    7    8 1
    17    7   14 1
    18    7    9 1
    19    9   10 1
    20    9   41 1
    21    9   42 1
    22   10   11 1
    23   10   43 1
    24   10   44 1
    25   11   12 2
    26   11   13 2
    27   11   14 1
    28   14   45 1
    29   14   46 1
    30   15   16 2
    31   15   17 1
    32   17   18 1
    33   17   47 1
    34   17   48 1
    35   18   19 1
    36   19   23 1
    37   19   20 2
    38   20   21 1
    39   21   22 2
    40   22   23 1
    41   22   28 1
    42   23   24 1
    43   24   25 1
    44   24   49 1
    45   24   50 1
    46   25   26 1
    47   25   51 1
    48   25   52 1
    49   26   27 2
    50   26   56 1
    51   28   32 1
    52   28   29 2
    53   29   30 1
    54   29   53 1
    55   30   31 2
    56   30   54 1
    57   31   32 1
    58   31   55 1
@<TRIPOS>MOLECULE
ZINC13298403
   55    58     0     0     0
SMALL
USER_CHARGES
2-[methyl-[(1-phenylpyrazol-4-yl)methyl]amino]-5-morpholinosulfonyl-benzoic acid
@<TRIPOS>ATOM
      1 C1         -2.1618    3.2822    5.9635 C.3       1 <0>         0.0374
      2 N1         -3.0603    3.0737    4.8201 N.pl3     1 <0>        -0.4717
      3 C2         -3.8549    4.2790    4.5483 C.3       1 <0>         0.1408
      4 C3         -4.7932    4.5323    5.7000 C.2       1 <0>        -0.1962
      5 C4         -6.0977    4.0412    5.8223 C.2       1 <0>         0.0982
      6 N2         -6.5923    4.4700    6.9556 N.2       1 <0>        -0.2950
      7 N3         -5.6210    5.2571    7.5875 N.pl3     1 <0>        -0.3301
      8 C5         -4.5250    5.2797    6.7958 C.2       1 <0>         0.0506
      9 C6         -5.7606    5.9068    8.8218 C.ar      1 <0>         0.1738
     10 C7         -4.7104    6.6547    9.3370 C.ar      1 <0>        -0.1477
     11 C8         -4.8530    7.2984   10.5507 C.ar      1 <0>        -0.0922
     12 C9         -6.0361    7.1888   11.2582 C.ar      1 <0>        -0.1381
     13 C10        -7.0820    6.4404   10.7502 C.ar      1 <0>        -0.0945
     14 C11        -6.9474    5.7990    9.5343 C.ar      1 <0>        -0.1239
     15 C12        -2.3494    2.6820    3.6938 C.ar      1 <0>         0.1755
     16 C13        -1.4221    3.5424    3.1187 C.ar      1 <0>        -0.1885
     17 C14        -0.7136    3.1490    2.0024 C.ar      1 <0>        -0.0220
     18 C15        -0.9267    1.9002    1.4394 C.ar      1 <0>        -0.6973
     19 C16        -1.8414    1.0332    1.9947 C.ar      1 <0>         0.0253
     20 C17        -2.5639    1.4144    3.1292 C.ar      1 <0>        -0.1073
     21 C18        -3.5434    0.4921    3.7287 C.2       1 <0>         0.4855
     22 O1         -4.1693    0.8275    4.7149 O.co2     1 <0>        -0.5839
     23 S1         -0.0172    1.4168    0.0098 S.o2      1 <0>         2.6933
     24 O2          0.0021   -0.0041    0.0020 O.2       1 <0>        -0.9504
     25 O3          1.1718    2.1948    0.0027 O.2       1 <0>        -0.9624
     26 N4         -0.8975    1.8855   -1.3122 N.pl3     1 <0>        -1.0026
     27 C19        -1.8883    0.9837   -1.9210 C.3       1 <0>         0.0862
     28 C20        -3.2088    1.7556   -2.0733 C.3       1 <0>         0.0452
     29 O4         -2.9581    2.9819   -2.7641 O.3       1 <0>        -0.3785
     30 C21        -2.0818    3.8748   -2.0724 C.3       1 <0>         0.0461
     31 C22        -0.7076    3.2136   -1.9166 C.3       1 <0>         0.0884
     32 H1         -1.4376    4.0594    5.7195 H         1 <0>         0.0204
     33 H2         -2.7445    3.5884    6.8323 H         1 <0>         0.0706
     34 H3         -1.6368    2.3536    6.1871 H         1 <0>         0.0682
     35 H4         -3.1891    5.1335    4.4274 H         1 <0>         0.0379
     36 H5         -4.4316    4.1355    3.6346 H         1 <0>         0.0837
     37 H6         -6.6076    3.4140    5.1061 H         1 <0>         0.1924
     38 H7         -3.6013    5.8003    7.0012 H         1 <0>         0.1716
     39 H8         -3.7844    6.7364    8.7873 H         1 <0>         0.1281
     40 H9         -4.0381    7.8840   10.9498 H         1 <0>         0.1302
     41 H10        -6.1435    7.6891   12.2093 H         1 <0>         0.1259
     42 H11        -8.0049    6.3569   11.3048 H         1 <0>         0.1300
     43 H12        -7.7646    5.2146    9.1380 H         1 <0>         0.1380
     44 H13        -1.2530    4.5186    3.5486 H         1 <0>         0.1237
     45 H14         0.0090    3.8199    1.5616 H         1 <0>         0.1303
     46 H15        -2.0001    0.0599    1.5545 H         1 <0>         0.1494
     47 H16        -1.5355    0.6576   -2.8994 H         1 <0>         0.0823
     48 H17        -2.0403    0.1172   -1.2775 H         1 <0>         0.1046
     49 H18        -3.6234    1.9707   -1.0885 H         1 <0>         0.0627
     50 H19        -3.9174    1.1548   -2.6434 H         1 <0>         0.1079
     51 H20        -2.4924    4.0977   -1.0875 H         1 <0>         0.0583
     52 H21        -1.9790    4.7983   -2.6422 H         1 <0>         0.1039
     53 H22        -0.0775    3.8244   -1.2702 H         1 <0>         0.0972
     54 H23        -0.2374    3.1082   -2.8943 H         1 <0>         0.0810
     55 O5         -3.7455   -0.7237    3.1836 O.co2     1 <0>        -0.7626
@<TRIPOS>BOND
     1    1    2 1
     2    1   32 1
     3    1   33 1
     4    1   34 1
     5    2    3 1
     6    2   15 1
     7    3    4 1
     8    3   35 1
     9    3   36 1
    10    4    8 2
    11    4    5 1
    12    5    6 2
    13    5   37 1
    14    6    7 1
    15    7    8 1
    16    7    9 1
    17    8   38 1
    18    9   14 ar
    19    9   10 ar
    20   10   11 ar
    21   10   39 1
    22   11   12 ar
    23   11   40 1
    24   12   13 ar
    25   12   41 1
    26   13   14 ar
    27   13   42 1
    28   14   43 1
    29   15   20 ar
    30   15   16 ar
    31   16   17 ar
    32   16   44 1
    33   17   18 ar
    34   17   45 1
    35   18   19 ar
    36   18   23 1
    37   19   20 ar
    38   19   46 1
    39   20   21 1
    40   21   22 2
    41   21   55 1
    42   23   24 2
    43   23   25 2
    44   23   26 1
    45   26   31 1
    46   26   27 1
    47   27   28 1
    48   27   47 1
    49   27   48 1
    50   28   29 1
    51   28   49 1
    52   28   50 1
    53   29   30 1
    54   30   31 1
    55   30   51 1
    56   30   52 1
    57   31   53 1
    58   31   54 1
@<TRIPOS>MOLECULE
ZINC09380547
   51    54     0     0     0
SMALL
USER_CHARGES
(5R)-4-(4-bromobenzoyl)-3-hydroxy-1-(3-imidazol-1-ylpropyl)-5-(4-nitrophenyl)-5H-pyrrol-2-one
@<TRIPOS>ATOM
      1 C1         -1.6212    4.1288   -2.2258 C.ar      1 <0>        -0.0860
      2 C2         -1.1618    4.6305   -3.4292 C.ar      1 <0>        -0.0548
      3 C3          0.1497    5.0511   -3.5472 C.ar      1 <0>        -0.0513
      4 C4          1.0004    4.9750   -2.4603 C.ar      1 <0>        -0.0546
      5 C5          0.5395    4.4786   -1.2552 C.ar      1 <0>        -0.1172
      6 C6         -0.7720    4.0579   -1.1373 C.ar      1 <0>        -0.0247
      7 C7         -1.2744    3.5163    0.1763 C.3       1 <0>         0.2607
      8 H1         -0.5404    3.7685    0.9559 H         1 <0>         0.0795
      9 C8         -1.5051    2.0270    0.0699 C.2       1 <0>        -0.5102
     10 C9         -2.8206    1.8174    0.3097 C.2       1 <0>         0.2725
     11 C10        -3.4769    3.1136    0.5825 C.2       1 <0>         0.5129
     12 O1         -4.6560    3.2582    0.8370 O.2       1 <0>        -0.5234
     13 N1         -2.5764    4.1100    0.5020 N.am      1 <0>        -0.6139
     14 C11        -2.8477    5.5354    0.7037 C.3       1 <0>         0.1384
     15 C12        -3.2280    6.1763   -0.6325 C.3       1 <0>        -0.1646
     16 C13        -3.5113    7.6650   -0.4218 C.3       1 <0>         0.1060
     17 N2         -3.8755    8.2787   -1.7012 N.pl3     1 <0>        -0.4550
     18 C14        -5.1378    8.3900   -2.2186 C.2       1 <0>        -0.0533
     19 C15        -5.0188    9.0153   -3.4054 C.2       1 <0>        -0.0325
     20 N3         -3.7192    9.2787   -3.6071 N.2       1 <0>        -0.4942
     21 C16        -3.0290    8.8455   -2.5878 C.2       1 <0>         0.1796
     22 O2         -3.4364    0.6128    0.3037 O.3       1 <0>        -0.6392
     23 C17        -0.4993    1.0063   -0.2395 C.2       1 <0>         0.5011
     24 O3         -0.5699    0.3781   -1.2791 O.2       1 <0>        -0.4640
     25 C18         0.6041    0.7446    0.7087 C.ar      1 <0>        -0.1215
     26 C19         0.7279    1.5116    1.8696 C.ar      1 <0>        -0.0632
     27 C20         1.7562    1.2590    2.7526 C.ar      1 <0>        -0.1069
     28 C21         2.6717    0.2546    2.4851 C.ar      1 <0>        -0.0757
     29 C22         2.5578   -0.5056    1.3329 C.ar      1 <0>        -0.1048
     30 C23         1.5306   -0.2668    0.4447 C.ar      1 <0>        -0.0691
     31 Br1         4.0836   -0.0797    3.6979 Br        1 <0>        -0.0590
     32 N4          0.6429    5.5836   -4.8372 N.pl3     1 <0>         0.0335
     33 O4          1.7984    5.9546   -4.9410 O.2       1 <0>        -0.1701
     34 O5         -0.1066    5.6507   -5.7949 O.3       1 <0>        -0.1644
     35 H2         -2.6446    3.7960   -2.1348 H         1 <0>         0.1402
     36 H3         -1.8266    4.6903   -4.2783 H         1 <0>         0.1483
     37 H4          2.0250    5.3037   -2.5524 H         1 <0>         0.1502
     38 H5          1.2041    4.4191   -0.4061 H         1 <0>         0.1456
     39 H6         -3.6773    5.6535    1.4163 H         1 <0>         0.0871
     40 H7         -1.9484    6.0269    1.1033 H         1 <0>         0.0813
     41 H8         -2.3984    6.0582   -1.3451 H         1 <0>         0.0790
     42 H9         -4.1273    5.6849   -1.0321 H         1 <0>         0.0788
     43 H10        -4.3409    7.7831    0.2908 H         1 <0>         0.0960
     44 H11        -2.6120    8.1565   -0.0222 H         1 <0>         0.0956
     45 H12        -6.0534    8.0435   -1.7625 H         1 <0>         0.1726
     46 H13        -5.8280    9.2615   -4.0769 H         1 <0>         0.1677
     47 H14        -1.9580    8.9249   -2.4733 H         1 <0>         0.1980
     48 H15         0.0173    2.2980    2.0770 H         1 <0>         0.1428
     49 H16         1.8503    1.8481    3.6529 H         1 <0>         0.1339
     50 H17         3.2748   -1.2874    1.1300 H         1 <0>         0.1333
     51 H18         1.4428   -0.8603   -0.4533 H         1 <0>         0.1392
@<TRIPOS>BOND
     1    1    6 ar
     2    1    2 ar
     3    1   35 1
     4    2    3 ar
     5    2   36 1
     6    3    4 ar
     7    3   32 1
     8    4    5 ar
     9    4   37 1
    10    5    6 ar
    11    5   38 1
    12    6    7 1
    13    7    8 1
    14    7   13 1
    15    7    9 1
    16    9   10 2
    17    9   23 1
    18   10   11 1
    19   10   22 1
    20   11   12 2
    21   11   13 am
    22   13   14 1
    23   14   15 1
    24   14   39 1
    25   14   40 1
    26   15   16 1
    27   15   41 1
    28   15   42 1
    29   16   17 1
    30   16   43 1
    31   16   44 1
    32   17   21 1
    33   17   18 1
    34   18   19 2
    35   18   45 1
    36   19   20 1
    37   19   46 1
    38   20   21 2
    39   21   47 1
    40   23   24 2
    41   23   25 1
    42   25   30 ar
    43   25   26 ar
    44   26   27 ar
    45   26   48 1
    46   27   28 ar
    47   27   49 1
    48   28   29 ar
    49   28   31 1
    50   29   30 ar
    51   29   50 1
    52   30   51 1
    53   32   33 2
    54   32   34 1
@<TRIPOS>MOLECULE
ZINC40003948
   54    58     0     0     0
SMALL
USER_CHARGES

@<TRIPOS>ATOM
      1 C1         -3.1552   -5.9340   -1.7580 C.3       1 <0>        -0.0998
      2 C2         -1.8646   -5.5092   -1.1060 C.2       1 <0>        -0.0582
      3 C3         -0.7671   -5.2334   -1.8675 C.2       1 <0>        -0.1018
      4 C4          0.4253   -4.8397   -1.2462 C.2       1 <0>        -0.1527
      5 C5          0.4858   -4.7344    0.1017 C.2       1 <0>         0.0732
      6 N1         -0.6036   -5.0080    0.8675 N.pl3     1 <0>        -0.3277
      7 C6         -1.7826   -5.3881    0.2917 C.2       1 <0>         0.2373
      8 N2         -2.6829   -5.5865    1.2549 N.2       1 <0>        -0.5028
      9 C7         -2.1386   -5.3449    2.4348 C.2       1 <0>         0.1656
     10 C8         -0.8126   -4.9826    2.2345 C.2       1 <0>        -0.1429
     11 C9          0.1335   -4.6388    3.2317 C.2       1 <0>         0.5475
     12 O1          1.2374   -4.2320    2.9106 O.2       1 <0>        -0.5046
     13 C10        -0.2153   -4.7722    4.6517 C.2       1 <0>        -0.4983
     14 C11        -0.2620   -5.9192    5.3663 C.2       1 <0>         0.2679
     15 C12        -0.6544   -5.6113    6.7548 C.2       1 <0>         0.5135
     16 O2         -0.7838   -6.4328    7.6411 O.2       1 <0>        -0.5184
     17 N3         -0.8478   -4.2873    6.8955 N.am      1 <0>        -0.6124
     18 C13        -0.5847   -3.6537    5.5979 C.3       1 <0>         0.2659
     19 H1         -1.4803   -3.1433    5.2437 H         1 <0>         0.0820
     20 C14         0.5567   -2.6769    5.7168 C.ar      1 <0>        -0.0678
     21 C15         1.7294   -3.0569    6.3428 C.ar      1 <0>        -0.0132
     22 C16         2.7762   -2.1611    6.4519 C.ar      1 <0>        -0.1138
     23 C17         2.6509   -0.8851    5.9345 C.ar      1 <0>        -0.0596
     24 C18         1.4789   -0.5055    5.3078 C.ar      1 <0>        -0.0535
     25 C19         0.4333   -1.4030    5.1950 C.ar      1 <0>        -0.0528
     26 N4          1.3446    0.8607    4.7544 N.pl3     1 <0>         0.0413
     27 O3          2.2600    1.6446    4.8505 O.2       1 <0>        -0.1728
     28 O4          0.3194    1.1927    4.2062 O.3       1 <0>        -0.1683
     29 C20        -1.2450   -3.5996    8.1265 C.3       1 <0>         0.2113
     30 C21        -0.0138   -3.2007    8.8987 C.2       1 <0>        -0.0277
     31 C22         0.6467   -2.0351    8.7787 C.2       1 <0>        -0.1919
     32 C23         1.7316   -2.0840    9.6839 C.2       1 <0>        -0.2136
     33 C24         1.6692   -3.2766   10.3029 C.2       1 <0>        -0.0396
     34 O5          0.6066   -3.9464    9.8275 O.3       1 <0>        -0.1637
     35 O6          0.0079   -7.1556    4.8835 O.3       1 <0>        -0.6479
     36 C25        -2.8326   -5.4565    3.7678 C.3       1 <0>        -0.0821
     37 H2         -3.7556   -5.0527   -1.9834 H         1 <0>         0.0738
     38 H3         -2.9365   -6.4705   -2.6813 H         1 <0>         0.0694
     39 H4         -3.7069   -6.5860   -1.0808 H         1 <0>         0.0779
     40 H5         -0.8169   -5.3183   -2.9430 H         1 <0>         0.1410
     41 H6          1.2978   -4.6203   -1.8438 H         1 <0>         0.1506
     42 H7          1.4085   -4.4303    0.5736 H         1 <0>         0.1713
     43 H8          1.8273   -4.0536    6.7470 H         1 <0>         0.1300
     44 H9          3.6920   -2.4577    6.9415 H         1 <0>         0.1392
     45 H10         3.4687   -0.1849    6.0203 H         1 <0>         0.1452
     46 H11        -0.4811   -1.1076    4.7020 H         1 <0>         0.1468
     47 H12        -1.8209   -2.7088    7.8755 H         1 <0>         0.1099
     48 H13        -1.8551   -4.2672    8.7350 H         1 <0>         0.1007
     49 H14         0.3966   -1.2187    8.1173 H         1 <0>         0.1390
     50 H15         2.4692   -1.3121    9.8468 H         1 <0>         0.1441
     51 H16         2.3549   -3.6333   11.0572 H         1 <0>         0.1984
     52 H17        -2.7419   -6.4769    4.1403 H         1 <0>         0.0848
     53 H18        -2.3712   -4.7687    4.4764 H         1 <0>         0.0935
     54 H19        -3.8867   -5.2048    3.6509 H         1 <0>         0.0672
@<TRIPOS>BOND
     1    1    2 1
     2    1   37 1
     3    1   38 1
     4    1   39 1
     5    2    7 1
     6    2    3 2
     7    3    4 1
     8    3   40 1
     9    4    5 2
    10    4   41 1
    11    5    6 1
    12    5   42 1
    13    6   10 1
    14    6    7 1
    15    7    8 2
    16    8    9 1
    17    9   10 2
    18    9   36 1
    19   10   11 1
    20   11   12 2
    21   11   13 1
    22   13   18 1
    23   13   14 2
    24   14   15 1
    25   14   35 1
    26   15   16 2
    27   15   17 am
    28   17   18 1
    29   17   29 1
    30   18   19 1
    31   18   20 1
    32   20   25 ar
    33   20   21 ar
    34   21   22 ar
    35   21   43 1
    36   22   23 ar
    37   22   44 1
    38   23   24 ar
    39   23   45 1
    40   24   25 ar
    41   24   26 1
    42   25   46 1
    43   26   27 2
    44   26   28 1
    45   29   30 1
    46   29   47 1
    47   29   48 1
    48   30   34 1
    49   30   31 2
    50   31   32 1
    51   31   49 1
    52   32   33 2
    53   32   50 1
    54   33   34 1
    55   33   51 1
    56   36   52 1
    57   36   53 1
    58   36   54 1
@<TRIPOS>MOLECULE
ZINC65098851
   46    49     0     0     0
SMALL
USER_CHARGES

@<TRIPOS>ATOM
      1 C1         -0.0173    1.4248    0.0099 C.3       1 <0>         0.0270
      2 O1          0.0021   -0.0041    0.0020 O.3       1 <0>        -0.2904
      3 C2          0.6064   -0.6077   -1.0567 C.ar      1 <0>         0.0736
      4 C3          1.1726    0.1585   -2.0619 C.ar      1 <0>        -0.1623
      5 C4          1.7863   -0.4559   -3.1381 C.ar      1 <0>        -0.1771
      6 C5          1.8368   -1.8364   -3.2145 C.ar      1 <0>         0.0012
      7 C6          1.2735   -2.6083   -2.2145 C.ar      1 <0>        -0.2378
      8 C7          0.6619   -1.9978   -1.1293 C.ar      1 <0>         0.2734
      9 N1          0.0966   -2.7765   -0.1129 N.2       1 <0>        -1.0642
     10 S1          0.1637   -4.4288   -0.2012 S.o2      1 <0>         2.6253
     11 O2         -0.6346   -4.8088   -1.3137 O.2       1 <0>        -1.0111
     12 O3          1.5346   -4.7860   -0.0898 O.2       1 <0>        -1.0150
     13 C8         -0.6396   -5.0603    1.2342 C.2       1 <0>        -0.7023
     14 C9         -1.9409   -5.3757    1.3969 C.2       1 <0>         0.0153
     15 C10        -2.3058   -5.8755    2.6999 C.2       1 <0>        -0.1215
     16 C11        -1.2988   -5.9777    3.6321 C.2       1 <0>        -0.1988
     17 S2          0.0696   -5.4448    2.8206 S.3       1 <0>         0.3445
     18 C12        -3.6922   -6.2584    3.0179 C.2       1 <0>         0.2743
     19 N2         -4.7261   -6.2041    2.1977 N.2       1 <0>        -0.2795
     20 N3         -5.7792   -6.6148    2.8124 N.2       1 <0>        -0.2199
     21 C13        -5.4634   -6.9469    4.0444 C.2       1 <0>         0.1023
     22 O4         -4.1371   -6.7333    4.1956 O.3       1 <0>        -0.1896
     23 C14        -6.3834   -7.4625    5.0690 C.2       1 <0>         0.6346
     24 O5         -5.9668   -7.7346    6.1792 O.2       1 <0>        -0.5117
     25 N4         -7.6883   -7.6338    4.7782 N.am      1 <0>        -0.5929
     26 C15        -8.3212   -7.3525    3.4814 C.3       1 <0>         0.0971
     27 C16        -9.8239   -7.6727    3.6260 C.3       1 <0>        -0.1325
     28 C17       -10.0537   -7.5778    5.1575 C.3       1 <0>        -0.1339
     29 C18        -8.7160   -8.1401    5.7060 C.3       1 <0>         0.1091
     30 Cl1         2.6082   -2.6014   -4.5686 Cl        1 <0>        -0.1038
     31 H1          1.0053    1.8021    0.0021 H         1 <0>         0.0440
     32 H2         -0.5445    1.7859   -0.8732 H         1 <0>         0.0440
     33 H3         -0.5275    1.7763    0.9067 H         1 <0>         0.0870
     34 H4          1.1346    1.2364   -2.0054 H         1 <0>         0.1225
     35 H5          2.2270    0.1434   -3.9210 H         1 <0>         0.1172
     36 H6          1.3136   -3.6858   -2.2763 H         1 <0>         0.1154
     37 H7         -2.6635   -5.2610    0.6026 H         1 <0>         0.1682
     38 H8         -1.3718   -6.3257    4.6519 H         1 <0>         0.2009
     39 H9         -8.1892   -6.3014    3.2246 H         1 <0>         0.0840
     40 H10        -7.8804   -7.9831    2.7093 H         1 <0>         0.0824
     41 H11       -10.4281   -6.9343    3.0988 H         1 <0>         0.0880
     42 H12       -10.0404   -8.6782    3.2651 H         1 <0>         0.0796
     43 H13       -10.2026   -6.5432    5.4668 H         1 <0>         0.0800
     44 H14       -10.8932   -8.2008    5.4660 H         1 <0>         0.0896
     45 H15        -8.7290   -9.2300    5.6996 H         1 <0>         0.0780
     46 H16        -8.5335   -7.7680    6.7141 H         1 <0>         0.0855
@<TRIPOS>BOND
     1    1    2 1
     2    1   31 1
     3    1   32 1
     4    1   33 1
     5    2    3 1
     6    3    8 ar
     7    3    4 ar
     8    4    5 ar
     9    4   34 1
    10    5    6 ar
    11    5   35 1
    12    6    7 ar
    13    6   30 1
    14    7    8 ar
    15    7   36 1
    16    8    9 1
    17    9   10 1
    18   10   11 2
    19   10   12 2
    20   10   13 1
    21   13   17 1
    22   13   14 2
    23   14   15 1
    24   14   37 1
    25   15   16 2
    26   15   18 1
    27   16   17 1
    28   16   38 1
    29   18   22 1
    30   18   19 2
    31   19   20 1
    32   20   21 2
    33   21   22 1
    34   21   23 1
    35   23   24 2
    36   23   25 am
    37   25   29 1
    38   25   26 1
    39   26   27 1
    40   26   39 1
    41   26   40 1
    42   27   28 1
    43   27   41 1
    44   27   42 1
    45   28   29 1
    46   28   43 1
    47   28   44 1
    48   29   45 1
    49   29   46 1
@<TRIPOS>MOLECULE
ZINC13461710
   53    55     0     0     0
SMALL
USER_CHARGES
2-[4-[[(1R,2S)-2-hydroxy-1-(hydroxymethyl)-2-(4-nitrophenyl)ethyl]amino]-3-nitro-benzoyl]benzoic acid
@<TRIPOS>ATOM
      1 C1         -2.8802   -2.3965    8.0566 C.ar      1 <0>        -0.1240
      2 C2         -2.6177   -1.4142    8.9955 C.ar      1 <0>        -0.1223
      3 C3         -3.0430   -0.1156    8.7873 C.ar      1 <0>        -0.0804
      4 C4         -3.7404    0.2110    7.6271 C.ar      1 <0>        -0.0855
      5 C5         -4.0075   -0.7884    6.6719 C.ar      1 <0>        -0.1226
      6 C6         -3.5755   -2.0925    6.9017 C.ar      1 <0>        -0.1046
      7 C7         -4.7475   -0.4568    5.4352 C.2       1 <0>         0.4807
      8 O1         -5.9179   -0.7673    5.3253 O.2       1 <0>        -0.4537
      9 C8         -4.0664    0.2499    4.3361 C.ar      1 <0>        -0.1684
     10 C9         -2.6930    0.5090    4.4133 C.ar      1 <0>         0.0335
     11 C10        -2.0639    1.1591    3.3902 C.ar      1 <0>        -0.2180
     12 C11        -2.7895    1.5738    2.2755 C.ar      1 <0>         0.3024
     13 C12        -4.1561    1.3177    2.1953 C.ar      1 <0>        -0.1288
     14 C13        -4.7909    0.6632    3.2126 C.ar      1 <0>         0.0479
     15 N1         -4.9218    1.7557    1.0066 N.pl3     1 <0>         0.0574
     16 O2         -6.1335    1.6336    0.9837 O.2       1 <0>        -0.1518
     17 O3         -4.3402    2.2382    0.0514 O.3       1 <0>        -0.2108
     18 N2         -2.1471    2.2393    1.2387 N.pl3     1 <0>        -0.7029
     19 C14        -0.7363    2.6118    1.3703 C.3       1 <0>         0.1154
     20 H1         -0.2095    1.8449    1.9380 H         1 <0>         0.1022
     21 C15        -0.6287    3.9516    2.1013 C.3       1 <0>         0.0626
     22 O4         -1.2303    4.9767    1.3080 O.3       1 <0>        -0.5646
     23 C16        -0.1103    2.7377   -0.0201 C.3       1 <0>         0.1462
     24 H2         -0.6856    3.4472   -0.6147 H         1 <0>         0.1328
     25 C17        -0.1177    1.3918   -0.6980 C.ar      1 <0>        -0.0670
     26 C18         0.8528    0.4570   -0.3893 C.ar      1 <0>        -0.1145
     27 C19         0.8432   -0.7793   -1.0076 C.ar      1 <0>        -0.0490
     28 C20        -0.1308   -1.0770   -1.9423 C.ar      1 <0>        -0.0439
     29 C21        -1.0982   -0.1404   -2.2548 C.ar      1 <0>        -0.0474
     30 C22        -1.0916    1.0941   -1.6327 C.ar      1 <0>        -0.0994
     31 N3         -0.1375   -2.3986   -2.6088 N.pl3     1 <0>         0.0278
     32 O5         -0.9954   -2.6608   -3.4327 O.2       1 <0>        -0.1572
     33 O6          0.7149   -3.2239   -2.3334 O.3       1 <0>        -0.1593
     34 O7          1.2358    3.2012    0.1038 O.3       1 <0>        -0.5326
     35 C23        -4.1969    1.5982    7.3995 C.2       1 <0>         0.4839
     36 O8         -4.8940    1.8584    6.4395 O.co2     1 <0>        -0.6101
     37 H3         -2.5435   -3.4079    8.2297 H         1 <0>         0.1223
     38 H4         -2.0773   -1.6639    9.8966 H         1 <0>         0.1218
     39 H5         -2.8347    0.6456    9.5246 H         1 <0>         0.1368
     40 H6         -3.7803   -2.8652    6.1754 H         1 <0>         0.1220
     41 H7         -2.1307    0.1914    5.2790 H         1 <0>         0.1438
     42 H8         -1.0034    1.3554    3.4470 H         1 <0>         0.1440
     43 H9         -5.8507    0.4646    3.1495 H         1 <0>         0.1606
     44 H10        -2.6327    2.4574    0.4278 H         1 <0>         0.4218
     45 H11        -1.1432    3.8849    3.0599 H         1 <0>         0.0586
     46 H12         0.4215    4.1909    2.2685 H         1 <0>         0.0654
     47 H13        -1.1984    5.8553    1.7107 H         1 <0>         0.3849
     48 H14         1.6163    0.6913    0.3378 H         1 <0>         0.1459
     49 H15         1.5991   -1.5110   -0.7636 H         1 <0>         0.1560
     50 H16        -1.8589   -0.3728   -2.9854 H         1 <0>         0.1571
     51 H17        -1.8472    1.8260   -1.8772 H         1 <0>         0.1531
     52 H18         1.8238    2.5841    0.5603 H         1 <0>         0.3747
     53 O9         -3.8399    2.5740    8.2569 O.co2     1 <0>        -0.7432
@<TRIPOS>BOND
     1    1    6 ar
     2    1    2 ar
     3    1   37 1
     4    2    3 ar
     5    2   38 1
     6    3    4 ar
     7    3   39 1
     8    4    5 ar
     9    4   35 1
    10    5    6 ar
    11    5    7 1
    12    6   40 1
    13    7    8 2
    14    7    9 1
    15    9   14 ar
    16    9   10 ar
    17   10   11 ar
    18   10   41 1
    19   11   12 ar
    20   11   42 1
    21   12   13 ar
    22   12   18 1
    23   13   14 ar
    24   13   15 1
    25   14   43 1
    26   15   16 2
    27   15   17 1
    28   18   19 1
    29   18   44 1
    30   19   20 1
    31   19   21 1
    32   19   23 1
    33   21   22 1
    34   21   45 1
    35   21   46 1
    36   22   47 1
    37   23   24 1
    38   23   25 1
    39   23   34 1
    40   25   30 ar
    41   25   26 ar
    42   26   27 ar
    43   26   48 1
    44   27   28 ar
    45   27   49 1
    46   28   29 ar
    47   28   31 1
    48   29   30 ar
    49   29   50 1
    50   30   51 1
    51   31   32 2
    52   31   33 1
    53   34   52 1
    54   35   36 2
    55   35   53 1
@<TRIPOS>MOLECULE
ZINC21084131
   41    42     0     0     0
SMALL
USER_CHARGES
4-[(E)-[[5-(2-ethenoxyethylsulfanyl)-4H-1,2,4-triazol-3-yl]hydrazono]methyl]-2-methoxy-6-nitro-phenol
@<TRIPOS>ATOM
      1 C1         -5.0854   -6.7272    0.0171 C.3       1 <0>         0.0242
      2 O1         -3.7945   -7.3397    0.0007 O.3       1 <0>        -0.2964
      3 C2         -2.7176   -6.5100   -0.0053 C.ar      1 <0>         0.0215
      4 C3         -2.8992   -5.1448    0.0098 C.ar      1 <0>        -0.1218
      5 C4         -1.7797   -4.2931   -0.0029 C.ar      1 <0>        -0.1624
      6 C5         -0.4836   -4.8431   -0.0190 C.ar      1 <0>         0.0232
      7 C6         -0.3159   -6.1964   -0.0280 C.ar      1 <0>        -0.1389
      8 C7         -1.4227   -7.0425   -0.0213 C.ar      1 <0>         0.3231
      9 O2         -1.2453   -8.3864   -0.0308 O.3       1 <0>        -0.5785
     10 N1          1.0488   -6.7692   -0.0445 N.pl3     1 <0>         0.0314
     11 O3          2.0974   -5.9724   -0.0504 O.2       1 <0>        -0.2914
     12 O4          1.2145   -8.0757   -0.0532 O.3       1 <0>        -0.1883
     13 C8         -1.9555   -2.8875    0.0065 C.2       1 <0>         0.1389
     14 N2         -0.9048   -2.0920    0.0000 N.2       1 <0>        -0.3070
     15 N3         -1.0649   -0.8120    0.0085 N.pl3     1 <0>        -0.4906
     16 C9          0.0021   -0.0041    0.0020 C.2       1 <0>         0.4747
     17 N4         -0.0165    1.3691    0.0096 N.2       1 <0>        -0.5214
     18 C10         1.2909    1.7656   -0.0008 C.2       1 <0>         0.1458
     19 N5          2.0485    0.6528   -0.0140 N.2       1 <0>        -0.3219
     20 N6          1.2907   -0.3862   -0.0123 N.pl3     1 <0>        -0.4090
     21 S1          1.8608    3.3799    0.0024 S.3       1 <0>         0.0724
     22 C11         3.6462    3.0830   -0.0162 C.3       1 <0>        -0.1294
     23 C12         4.3860    4.4223   -0.0161 C.3       1 <0>         0.0784
     24 O5          5.7955    4.1879   -0.0308 O.3       1 <0>        -0.3244
     25 C13         6.6014    5.2793   -0.0326 C.2       1 <0>         0.0312
     26 C14         7.9101    5.1315   -0.0459 C.2       1 <0>        -0.2665
     27 H1         -5.8612   -7.5070    0.0204 H         1 <0>         0.0940
     28 H2         -5.2033   -6.0964   -0.8763 H         1 <0>         0.0492
     29 H3         -5.1854   -6.1067    0.9199 H         1 <0>         0.0492
     30 H4         -3.8963   -4.7301    0.0267 H         1 <0>         0.1267
     31 H5          0.3785   -4.1926   -0.0246 H         1 <0>         0.1366
     32 H6         -2.9690   -2.4600    0.0192 H         1 <0>         0.1164
     33 H7         -2.0784   -0.3845    0.0211 H         1 <0>         0.4205
     34 H8          3.9313    2.5065    0.8762 H         1 <0>         0.1054
     35 H9          3.9143    2.5161   -0.9200 H         1 <0>         0.1054
     36 H10         4.1008    4.9987   -0.9085 H         1 <0>         0.0708
     37 H11         4.1180    4.9892    0.8877 H         1 <0>         0.0708
     38 H12         6.1618    6.2876   -0.0230 H         1 <0>         0.1199
     39 H13         8.5635    6.0164   -0.0474 H         1 <0>         0.1224
     40 H14         8.3497    4.1232   -0.0555 H         1 <0>         0.1057
     41 H15         1.5471   -1.4559   -0.0204 H         1 <0>         0.4900
@<TRIPOS>BOND
     1    1    2 1
     2    1   27 1
     3    1   28 1
     4    1   29 1
     5    2    3 1
     6    3    8 ar
     7    3    4 ar
     8    4    5 ar
     9    4   30 1
    10    5    6 ar
    11    5   13 1
    12    6    7 ar
    13    6   31 1
    14    7    8 ar
    15    7   10 1
    16    8    9 1
    17   10   11 2
    18   10   12 1
    19   13   14 2
    20   13   32 1
    21   14   15 1
    22   15   16 1
    23   15   33 1
    24   16   20 1
    25   16   17 2
    26   17   18 1
    27   18   19 2
    28   18   21 1
    29   19   20 1
    30   20   41 1
    31   21   22 1
    32   22   23 1
    33   22   34 1
    34   22   35 1
    35   23   24 1
    36   23   36 1
    37   23   37 1
    38   24   25 1
    39   25   26 2
    40   25   38 1
    41   26   39 1
    42   26   40 1
@<TRIPOS>MOLECULE
ZINC33770407
   51    54     0     0     0
SMALL
USER_CHARGES

@<TRIPOS>ATOM
      1 C1         -0.7850    1.9805   -0.4926 C.ar      1 <0>        -0.1244
      2 C2          0.5051    2.4615   -0.3693 C.ar      1 <0>        -0.1132
      3 C3          1.5708    1.5816   -0.3387 C.ar      1 <0>        -0.1435
      4 C4          1.3463    0.2207   -0.4308 C.ar      1 <0>        -0.0730
      5 C5          0.0561   -0.2603   -0.5531 C.ar      1 <0>        -0.0892
      6 C6         -1.0094    0.6197   -0.5852 C.ar      1 <0>        -0.1088
      7 C7          2.5082   -0.7385   -0.3983 C.3       1 <0>         0.2432
      8 H1          3.3832   -0.2524    0.0330 H         1 <0>         0.0803
      9 C8          2.8194   -1.2250   -1.7945 C.2       1 <0>        -0.4725
     10 C9          2.6542   -2.5665   -1.7865 C.2       1 <0>         0.2969
     11 C10         2.2430   -2.9979   -0.4343 C.2       1 <0>         0.5120
     12 O1          2.0169   -4.1461   -0.1072 O.2       1 <0>        -0.4983
     13 N1          2.1569   -1.9305    0.3826 N.am      1 <0>        -0.5470
     14 C11         1.7969   -1.9530    1.7328 C.ar      1 <0>         0.1887
     15 C12         1.7424   -0.7697    2.4585 C.ar      1 <0>        -0.1580
     16 C13         1.3859   -0.7953    3.7925 C.ar      1 <0>        -0.0926
     17 C14         1.0837   -1.9973    4.4060 C.ar      1 <0>        -0.1566
     18 C15         1.1373   -3.1772    3.6867 C.ar      1 <0>        -0.0911
     19 C16         1.4872   -3.1580    2.3508 C.ar      1 <0>        -0.1616
     20 O2          2.8361   -3.3849   -2.8487 O.3       1 <0>        -0.5896
     21 C17         3.2226   -0.3999   -2.9390 C.2       1 <0>         0.6067
     22 O3          3.4451   -0.9204   -4.0157 O.2       1 <0>        -0.5308
     23 N2          3.3465    0.9347   -2.7972 N.am      1 <0>        -0.5471
     24 N3          3.7314    1.7225   -3.8899 N.pl3     1 <0>        -0.4689
     25 C18         3.8597    3.1055   -3.7430 C.ar      1 <0>         0.3169
     26 C19         3.4971    3.7154   -2.5485 C.ar      1 <0>        -0.2012
     27 C20         3.6257    5.0829   -2.4065 C.ar      1 <0>         0.0391
     28 C21         4.1144    5.8454   -3.4518 C.ar      1 <0>        -0.1240
     29 C22         4.4758    5.2417   -4.6420 C.ar      1 <0>         0.0685
     30 C23         4.3555    3.8735   -4.7887 C.ar      1 <0>        -0.1332
     31 N4          4.7488    3.2273   -6.0610 N.pl3     1 <0>         0.0405
     32 O4          5.2834    2.1430   -6.0483 O.2       1 <0>        -0.1619
     33 O5          4.5354    3.7838   -7.1129 O.3       1 <0>        -0.1304
     34 N5          4.2505    7.3111   -3.2960 N.pl3     1 <0>         0.0503
     35 O6          3.9345    7.8404   -2.2560 O.2       1 <0>        -0.1600
     36 O7          4.6775    7.9789   -4.2089 O.3       1 <0>        -0.1665
     37 H2         -1.6179    2.6677   -0.5120 H         1 <0>         0.1201
     38 H3          0.6805    3.5247   -0.2974 H         1 <0>         0.1225
     39 H4          2.5788    1.9574   -0.2431 H         1 <0>         0.1158
     40 H5         -0.1192   -1.3235   -0.6254 H         1 <0>         0.1176
     41 H6         -2.0174    0.2439   -0.6812 H         1 <0>         0.1208
     42 H7          1.9790    0.1693    1.9802 H         1 <0>         0.1246
     43 H8          1.3433    0.1242    4.3572 H         1 <0>         0.1214
     44 H9          0.8055   -2.0146    5.4494 H         1 <0>         0.1178
     45 H10         0.9011   -4.1142    4.1690 H         1 <0>         0.1225
     46 H11         1.5242   -4.0792    1.7884 H         1 <0>         0.1510
     47 H12         3.1691    1.3497   -1.9386 H         1 <0>         0.4153
     48 H13         3.9088    1.3074   -4.7485 H         1 <0>         0.4486
     49 H14         3.1148    3.1207   -1.7321 H         1 <0>         0.1581
     50 H15         3.3440    5.5576   -1.4782 H         1 <0>         0.1695
     51 H16         4.8568    5.8401   -5.4564 H         1 <0>         0.1750
@<TRIPOS>BOND
     1    1    6 ar
     2    1    2 ar
     3    1   37 1
     4    2    3 ar
     5    2   38 1
     6    3    4 ar
     7    3   39 1
     8    4    5 ar
     9    4    7 1
    10    5    6 ar
    11    5   40 1
    12    6   41 1
    13    7    8 1
    14    7   13 1
    15    7    9 1
    16    9   10 2
    17    9   21 1
    18   10   11 1
    19   10   20 1
    20   11   12 2
    21   11   13 am
    22   13   14 1
    23   14   19 ar
    24   14   15 ar
    25   15   16 ar
    26   15   42 1
    27   16   17 ar
    28   16   43 1
    29   17   18 ar
    30   17   44 1
    31   18   19 ar
    32   18   45 1
    33   19   46 1
    34   21   22 2
    35   21   23 am
    36   23   24 1
    37   23   47 1
    38   24   25 1
    39   24   48 1
    40   25   30 ar
    41   25   26 ar
    42   26   27 ar
    43   26   49 1
    44   27   28 ar
    45   27   50 1
    46   28   29 ar
    47   28   34 1
    48   29   30 ar
    49   29   51 1
    50   30   31 1
    51   31   32 2
    52   31   33 1
    53   34   35 2
    54   34   36 1
@<TRIPOS>MOLECULE
ZINC33869035
   51    54     0     0     0
SMALL
USER_CHARGES

@<TRIPOS>ATOM
      1 C1         -0.8828    1.4708   -1.1529 C.3       1 <0>        -0.1432
      2 C2         -0.8259   -0.0346   -1.1157 C.2       1 <0>         0.4537
      3 O1         -0.4874   -0.6509   -2.0984 O.2       1 <0>        -0.4938
      4 O2         -1.1514   -0.6911    0.0093 O.3       1 <0>        -0.2984
      5 C3         -1.1850   -2.0494   -0.0314 C.ar      1 <0>         0.0782
      6 C4         -0.0028   -2.7748   -0.0036 C.ar      1 <0>        -0.1208
      7 C5         -0.0396   -4.1551   -0.0446 C.ar      1 <0>        -0.0841
      8 C6         -1.2533   -4.8137   -0.1133 C.ar      1 <0>        -0.0788
      9 C7         -2.4330   -4.0930   -0.1416 C.ar      1 <0>        -0.0943
     10 C8         -2.4018   -2.7127   -0.0950 C.ar      1 <0>        -0.1133
     11 C9         -1.2906   -6.3196   -0.1580 C.3       1 <0>         0.1382
     12 H1         -0.3320   -6.7176   -0.4911 H         1 <0>         0.1042
     13 C10        -1.6665   -6.8902    1.2058 C.3       1 <0>        -0.1573
     14 H2         -2.4774   -6.3381    1.6809 H         1 <0>         0.1373
     15 C11        -2.0827   -8.3265    0.7093 C.3       1 <0>        -0.1317
     16 H3         -1.1859   -8.6910    0.2082 H         1 <0>         0.0924
     17 C12        -2.0599   -9.0858    1.9363 C.2       1 <0>         0.5705
     18 O3         -2.7781  -10.0124    2.2445 O.2       1 <0>        -0.4361
     19 N1         -1.0478   -8.5296    2.6787 N.am      1 <0>        -0.7153
     20 C13        -0.6151   -7.3179    2.1805 C.2       1 <0>         0.5588
     21 O4          0.4028   -6.7228    2.4622 O.2       1 <0>        -0.4682
     22 C14        -2.9691   -8.0518   -0.4285 C.3       1 <0>         0.0616
     23 N2         -2.3999   -6.7961   -1.0471 N.3       1 <0>        -0.6434
     24 C15        -2.9112   -9.1990   -1.4391 C.3       1 <0>        -0.0545
     25 C16        -3.7308   -8.8416   -2.6522 C.ar      1 <0>        -0.0021
     26 C17        -5.0734   -9.1675   -2.6998 C.ar      1 <0>        -0.0977
     27 C18        -5.8252   -8.8397   -3.8125 C.ar      1 <0>        -0.0551
     28 C19        -5.2345   -8.1856   -4.8775 C.ar      1 <0>        -0.0614
     29 C20        -3.8922   -7.8589   -4.8296 C.ar      1 <0>        -0.0631
     30 C21        -3.1414   -8.1829   -3.7150 C.ar      1 <0>        -0.0961
     31 N3         -6.0393   -7.8355   -6.0694 N.pl3     1 <0>         0.0421
     32 O5         -7.2132   -8.1215   -6.1116 O.2       1 <0>        -0.1724
     33 O6         -5.5228   -7.2634   -7.0009 O.3       1 <0>        -0.1744
     34 C22        -4.3834   -7.8392    0.0466 C.2       1 <0>         0.4930
     35 O7         -4.9470   -6.7803   -0.1714 O.co2     1 <0>        -0.6833
     36 O8         -4.9639   -8.7261    0.6490 O.co2     1 <0>        -0.6623
     37 H4         -0.5865    1.8213   -2.1416 H         1 <0>         0.1033
     38 H5         -1.8994    1.8014   -0.9399 H         1 <0>         0.1023
     39 H6         -0.2037    1.8787   -0.4042 H         1 <0>         0.1011
     40 H7          0.9456   -2.2607    0.0497 H         1 <0>         0.1257
     41 H8          0.8805   -4.7202   -0.0234 H         1 <0>         0.1319
     42 H9         -3.3798   -4.6098   -0.1957 H         1 <0>         0.1480
     43 H10        -3.3236   -2.1504   -0.1127 H         1 <0>         0.1318
     44 H11        -0.6795   -8.9396    3.4768 H         1 <0>         0.4100
     45 H12        -3.1165   -6.0919   -1.1402 H         1 <0>         0.3626
     46 H13        -1.8766   -9.3691   -1.7369 H         1 <0>         0.0750
     47 H14        -3.3119  -10.1048   -0.9839 H         1 <0>         0.0904
     48 H15        -5.5348   -9.6786   -1.8677 H         1 <0>         0.1496
     49 H16        -6.8739   -9.0950   -3.8500 H         1 <0>         0.1465
     50 H17        -3.4307   -7.3482   -5.6618 H         1 <0>         0.1457
     51 H18        -2.0935   -7.9244   -3.6760 H         1 <0>         0.1472
@<TRIPOS>BOND
     1    1    2 1
     2    1   37 1
     3    1   38 1
     4    1   39 1
     5    2    3 2
     6    2    4 1
     7    4    5 1
     8    5   10 ar
     9    5    6 ar
    10    6    7 ar
    11    6   40 1
    12    7    8 ar
    13    7   41 1
    14    8    9 ar
    15    8   11 1
    16    9   10 ar
    17    9   42 1
    18   10   43 1
    19   11   12 1
    20   11   23 1
    21   11   13 1
    22   13   14 1
    23   13   20 1
    24   13   15 1
    25   15   16 1
    26   15   17 1
    27   15   22 1
    28   17   18 2
    29   17   19 am
    30   19   20 am
    31   19   44 1
    32   20   21 2
    33   22   23 1
    34   22   24 1
    35   22   34 1
    36   23   45 1
    37   24   25 1
    38   24   46 1
    39   24   47 1
    40   25   30 ar
    41   25   26 ar
    42   26   27 ar
    43   26   48 1
    44   27   28 ar
    45   27   49 1
    46   28   29 ar
    47   28   31 1
    48   29   30 ar
    49   29   50 1
    50   30   51 1
    51   31   32 2
    52   31   33 1
    53   34   35 2
    54   34   36 1
@<TRIPOS>MOLECULE
ZINC59832085
   46    49     0     0     0
SMALL
USER_CHARGES

@<TRIPOS>ATOM
      1 C1         -0.0178    1.4608    0.0101 C.3       1 <0>         0.0954
      2 N1          0.0021   -0.0041    0.0020 N.am      1 <0>        -0.5037
      3 C2         -1.1868   -0.7123    0.0039 C.2       1 <0>         0.2369
      4 C3         -1.1414   -2.1253   -0.0040 C.2       1 <0>        -0.1562
      5 C4          0.0982   -2.7599   -0.0126 C.2       1 <0>         0.5546
      6 O1          0.1746   -4.1042   -0.0207 O.3       1 <0>        -0.6021
      7 N2          1.2347   -2.0043   -0.0133 N.am      1 <0>        -0.5396
      8 C5          1.1774   -0.6617   -0.0127 C.2       1 <0>         0.7070
      9 O2          2.2131   -0.0242   -0.0192 O.2       1 <0>        -0.5745
     10 C6          2.5403   -2.6687   -0.0224 C.3       1 <0>         0.0901
     11 N3         -2.4307   -2.5494   -0.0001 N.2       1 <0>        -0.4134
     12 C7         -3.2079   -1.4835    0.0093 C.2       1 <0>         0.0944
     13 N4         -2.4646   -0.3741    0.0118 N.2       1 <0>        -0.5170
     14 S1         -4.9696   -1.5185    0.0170 S.3       1 <0>         0.2348
     15 C8         -5.3618   -3.2363    0.0098 C.2       1 <0>         0.1984
     16 N5         -6.5960   -3.7514    0.0073 N.2       1 <0>        -0.5218
     17 C9         -6.5271   -5.0662    0.0014 C.2       1 <0>         0.5374
     18 N6         -5.2226   -5.4151    0.0002 N.pl3     1 <0>        -0.5126
     19 N7         -4.4906   -4.2168    0.0004 N.2       1 <0>        -0.2342
     20 N8         -7.6011   -5.9363   -0.0027 N.pl3     1 <0>        -0.5517
     21 N9         -8.9092   -5.4345   -0.0012 N.2       1 <0>        -0.2017
     22 C10        -9.9172   -6.2512   -0.0051 C.2       1 <0>         0.1301
     23 C11       -11.2955   -5.7224   -0.0035 C.2       1 <0>        -0.1964
     24 C12       -11.6696   -4.3615   -0.0043 C.2       1 <0>         0.0907
     25 N10       -12.9739   -4.2987   -0.0024 N.2       1 <0>        -0.2934
     26 N11       -13.4891   -5.6000   -0.0004 N.pl3     1 <0>        -0.3650
     27 C13       -12.4556   -6.4659   -0.0072 C.2       1 <0>         0.0832
     28 C14       -14.9092   -5.9599    0.0020 C.3       1 <0>         0.1621
     29 C15       -15.5947   -5.2917    1.1659 C.2       1 <0>        -0.1755
     30 C16       -16.6448   -4.5357    0.9615 C.2       1 <0>        -0.1563
     31 H1          1.0048    1.8381    0.0023 H         1 <0>         0.0889
     32 H2         -0.5450    1.8219   -0.8730 H         1 <0>         0.0679
     33 H3         -0.5280    1.8123    0.9069 H         1 <0>         0.0680
     34 H4          2.3981   -3.7494   -0.0277 H         1 <0>         0.0993
     35 H5          3.0935   -2.3708   -0.9131 H         1 <0>         0.0696
     36 H6          3.1009   -2.3804    0.8668 H         1 <0>         0.0696
     37 H7         -7.4492   -6.8943   -0.0065 H         1 <0>         0.3954
     38 H8         -9.7481   -7.3178   -0.0094 H         1 <0>         0.1151
     39 H9        -10.9944   -3.5186   -0.0061 H         1 <0>         0.1950
     40 H10       -12.5244   -7.5437   -0.0116 H         1 <0>         0.1815
     41 H11       -15.3694   -5.6294   -0.9292 H         1 <0>         0.0906
     42 H12       -15.0098   -7.0414    0.0932 H         1 <0>         0.1057
     43 H13       -15.2203   -5.4362    2.1686 H         1 <0>         0.1147
     44 H14       -17.0193   -4.3912   -0.0412 H         1 <0>         0.1007
     45 H15       -17.1361   -4.0568    1.7956 H         1 <0>         0.1049
     46 H16        -4.8623   -6.3157   -0.0038 H         1 <0>         0.4330
@<TRIPOS>BOND
     1    1    2 1
     2    1   31 1
     3    1   32 1
     4    1   33 1
     5    2    8 am
     6    2    3 1
     7    3   13 2
     8    3    4 1
     9    4    5 2
    10    4   11 1
    11    5    6 1
    12    5    7 1
    13    7    8 am
    14    7   10 1
    15    8    9 2
    16   10   34 1
    17   10   35 1
    18   10   36 1
    19   11   12 2
    20   12   13 1
    21   12   14 1
    22   14   15 1
    23   15   19 2
    24   15   16 1
    25   16   17 2
    26   17   18 1
    27   17   20 1
    28   18   19 1
    29   18   46 1
    30   20   21 1
    31   20   37 1
    32   21   22 2
    33   22   23 1
    34   22   38 1
    35   23   27 2
    36   23   24 1
    37   24   25 2
    38   24   39 1
    39   25   26 1
    40   26   27 1
    41   26   28 1
    42   27   40 1
    43   28   29 1
    44   28   41 1
    45   28   42 1
    46   29   30 2
    47   29   43 1
    48   30   44 1
    49   30   45 1
@<TRIPOS>MOLECULE
ZINC19797084
   36    39     0     0     0
SMALL
USER_CHARGES
5-amino-1-[6-(m-tolyl)thieno[2,3-e]pyrimidin-4-yl]pyrazole-4-carbonitrile
@<TRIPOS>ATOM
      1 C1          2.4904    1.0404   -0.0156 C.3       1 <0>        -0.1212
      2 C2          1.1780    1.7809    0.0004 C.ar      1 <0>        -0.0813
      3 C3         -0.0126    1.0758    0.0080 C.ar      1 <0>        -0.1007
      4 C4         -1.2215    1.7481    0.0173 C.ar      1 <0>        -0.1131
      5 C5         -1.2470    3.1277    0.0299 C.ar      1 <0>        -0.0910
      6 C6         -0.0501    3.8446    0.0218 C.ar      1 <0>        -0.0252
      7 C7          1.1662    3.1603    0.0070 C.ar      1 <0>        -0.0943
      8 C8         -0.0702    5.3233    0.0285 C.2       1 <0>        -0.0435
      9 C9         -1.1448    6.1564    0.0426 C.2       1 <0>        -0.1663
     10 C10        -0.9528    7.5458    0.0475 C.ar      1 <0>         0.2008
     11 C11         0.3957    7.9733    0.0370 C.ar      1 <0>        -0.2669
     12 S1          1.3105    6.4550    0.0279 S.3       1 <0>         0.1934
     13 C12         0.7184    9.3170    0.0406 C.ar      1 <0>         0.4978
     14 N1         -0.2747   10.2057    0.0542 N.ar      1 <0>        -0.5581
     15 C13        -1.5304    9.7955    0.0639 C.ar      1 <0>         0.3388
     16 N2         -1.8798    8.5351    0.0614 N.ar      1 <0>        -0.5044
     17 N3          2.0491    9.7324    0.0306 N.pl3     1 <0>        -0.3504
     18 C14         2.4806   11.0214    0.0329 C.2       1 <0>         0.4689
     19 C15         3.8720   10.9843    0.0203 C.2       1 <0>        -0.2762
     20 C16         4.2506    9.6213    0.0103 C.2       1 <0>         0.1662
     21 N4          3.1692    8.8939    0.0226 N.2       1 <0>        -0.2971
     22 C17         4.7537   12.1127    0.0173 C.1       1 <0>         0.2964
     23 N5          5.4531   13.0078    0.0150 N.1       1 <0>        -0.4396
     24 N6          1.6891   12.1527    0.0448 N.pl3     1 <0>        -0.8380
     25 H1          2.3001   -0.0430   -0.0189 H         1 <0>         0.0697
     26 H2          3.0731    1.3076    0.8783 H         1 <0>         0.0741
     27 H3          3.0560    1.3161   -0.9179 H         1 <0>         0.0741
     28 H4          0.0021   -0.0041    0.0020 H         1 <0>         0.1290
     29 H5         -2.1473    1.1920    0.0191 H         1 <0>         0.1321
     30 H6         -2.1915    3.6514    0.0410 H         1 <0>         0.1304
     31 H7          2.0961    3.7096    0.0003 H         1 <0>         0.1279
     32 H8         -2.1449    5.7488    0.0496 H         1 <0>         0.1542
     33 H9         -2.3111   10.5417    0.0752 H         1 <0>         0.2124
     34 H10         5.2636    9.2470   -0.0009 H         1 <0>         0.2075
     35 H11         2.1543   13.1495    0.0455 H         1 <0>         0.4441
     36 H12         0.5933   12.0572    0.0536 H         1 <0>         0.4493
@<TRIPOS>BOND
     1    1    2 1
     2    1   25 1
     3    1   26 1
     4    1   27 1
     5    2    7 ar
     6    2    3 ar
     7    3    4 ar
     8    3   28 1
     9    4    5 ar
    10    4   29 1
    11    5    6 ar
    12    5   30 1
    13    6    7 ar
    14    6    8 1
    15    7   31 1
    16    8   12 1
    17    8    9 2
    18    9   10 1
    19    9   32 1
    20   10   16 ar
    21   10   11 ar
    22   11   12 1
    23   11   13 ar
    24   13   14 ar
    25   13   17 1
    26   14   15 ar
    27   15   16 ar
    28   15   33 1
    29   17   21 1
    30   17   18 1
    31   18   19 2
    32   18   24 1
    33   19   20 1
    34   19   22 1
    35   20   21 2
    36   20   34 1
    37   22   23 3
    38   24   35 1
    39   24   36 1
@<TRIPOS>MOLECULE
ZINC40726907
   54    57     0     0     0
SMALL
USER_CHARGES

@<TRIPOS>ATOM
      1 C1          2.7544   -0.4775   -0.0496 C.3       1 <0>        -0.1596
      2 C2          1.3671   -1.1062    0.0952 C.3       1 <0>         0.1738
      3 H1          1.4627   -2.1895    0.1684 H         1 <0>         0.0614
      4 C3          0.5110   -0.7473   -1.1234 C.3       1 <0>        -0.1320
      5 C4         -0.9149   -1.2601   -0.9089 C.3       1 <0>        -0.1156
      6 C5         -1.5217   -0.5852    0.3233 C.3       1 <0>        -0.1370
      7 C6         -0.6885   -0.9422    1.5583 C.3       1 <0>         0.1494
      8 N1          0.7146   -0.5865    1.3047 N.pl3     1 <0>        -0.6517
      9 C7          1.4100    0.2288    2.1897 C.ar      1 <0>         0.3596
     10 C8          2.2044   -0.3295    3.1929 C.ar      1 <0>         0.1256
     11 C9          2.8818    0.5347    4.0546 C.ar      1 <0>         0.3424
     12 N2          2.7458    1.8483    3.8885 N.ar      1 <0>        -0.4963
     13 C10         1.9857    2.3343    2.9283 C.ar      1 <0>         0.2509
     14 N3          1.3334    1.5536    2.0906 N.ar      1 <0>        -0.4954
     15 N4          3.6856    0.0313    5.0706 N.pl3     1 <0>        -0.6506
     16 C11         5.0848   -0.3323    4.8067 C.3       1 <0>         0.1348
     17 C12         5.9828    0.4287    5.7900 C.3       1 <0>         0.1063
     18 N5          5.4488    0.2510    7.1476 N.pl3     1 <0>        -0.6250
     19 C13         4.0495    0.6147    7.4115 C.3       1 <0>         0.1056
     20 C14         3.1532   -0.1411    6.4295 C.3       1 <0>         0.1341
     21 C15         6.2565   -0.2548    8.1686 C.ar      1 <0>         0.2209
     22 C16         7.6091   -0.4753    7.9416 C.ar      1 <0>        -0.2019
     23 C17         8.4051   -0.9751    8.9536 C.ar      1 <0>        -0.0706
     24 C18         7.8569   -1.2564   10.1916 C.ar      1 <0>        -0.1821
     25 C19         6.5107   -1.0381   10.4209 C.ar      1 <0>        -0.0706
     26 C20         5.7103   -0.5331    9.4152 C.ar      1 <0>        -0.2018
     27 N6          2.3185   -1.7226    3.3316 N.pl3     1 <0>        -0.8496
     28 H2          3.3311   -0.6569    0.8578 H         1 <0>         0.0535
     29 H3          3.2685   -0.9236   -0.9009 H         1 <0>         0.0683
     30 H4          2.6521    0.5960   -0.2087 H         1 <0>         0.0626
     31 H5          0.4931    0.3352   -1.2494 H         1 <0>         0.0685
     32 H6          0.9341   -1.2109   -2.0145 H         1 <0>         0.0677
     33 H7         -1.5201   -1.0277   -1.7852 H         1 <0>         0.0622
     34 H8         -0.8938   -2.3395   -0.7583 H         1 <0>         0.0605
     35 H9         -1.5204    0.4958    0.1837 H         1 <0>         0.0683
     36 H10        -2.5452   -0.9334    0.4619 H         1 <0>         0.0679
     37 H11        -1.0565   -0.3861    2.4206 H         1 <0>         0.0661
     38 H12        -0.7627   -2.0123    1.7523 H         1 <0>         0.0540
     39 H13         1.8974    3.4054    2.8222 H         1 <0>         0.1902
     40 H14         5.2165   -1.4053    4.9462 H         1 <0>         0.0599
     41 H15         5.3474   -0.0589    3.7847 H         1 <0>         0.0762
     42 H16         6.9970    0.0324    5.7410 H         1 <0>         0.0885
     43 H17         5.9887    1.4884    5.5350 H         1 <0>         0.0669
     44 H18         3.7870    0.3412    8.4335 H         1 <0>         0.0889
     45 H19         3.9178    1.6876    7.2720 H         1 <0>         0.0677
     46 H20         2.1403    0.2587    6.4791 H         1 <0>         0.0769
     47 H21         3.1442   -1.2001    6.6873 H         1 <0>         0.0596
     48 H22         8.0378   -0.2564    6.9748 H         1 <0>         0.1205
     49 H23         9.4567   -1.1467    8.7777 H         1 <0>         0.1194
     50 H24         8.4814   -1.6478   10.9810 H         1 <0>         0.1169
     51 H25         6.0858   -1.2589   11.3889 H         1 <0>         0.1194
     52 H26         4.6600   -0.3586    9.5963 H         1 <0>         0.1209
     53 H27         1.9012   -2.3103    2.6825 H         1 <0>         0.4019
     54 H28         2.8146   -2.0968    4.0764 H         1 <0>         0.4015
@<TRIPOS>BOND
     1    1    2 1
     2    1   28 1
     3    1   29 1
     4    1   30 1
     5    2    3 1
     6    2    8 1
     7    2    4 1
     8    4    5 1
     9    4   31 1
    10    4   32 1
    11    5    6 1
    12    5   33 1
    13    5   34 1
    14    6    7 1
    15    6   35 1
    16    6   36 1
    17    7    8 1
    18    7   37 1
    19    7   38 1
    20    8    9 1
    21    9   14 ar
    22    9   10 ar
    23   10   11 ar
    24   10   27 1
    25   11   12 ar
    26   11   15 1
    27   12   13 ar
    28   13   14 ar
    29   13   39 1
    30   15   20 1
    31   15   16 1
    32   16   17 1
    33   16   40 1
    34   16   41 1
    35   17   18 1
    36   17   42 1
    37   17   43 1
    38   18   19 1
    39   18   21 1
    40   19   20 1
    41   19   44 1
    42   19   45 1
    43   20   46 1
    44   20   47 1
    45   21   26 ar
    46   21   22 ar
    47   22   23 ar
    48   22   48 1
    49   23   24 ar
    50   23   49 1
    51   24   25 ar
    52   24   50 1
    53   25   26 ar
    54   25   51 1
    55   26   52 1
    56   27   53 1
    57   27   54 1
@<TRIPOS>MOLECULE
ZINC09088654
   45    49     0     0     0
SMALL
USER_CHARGES

@<TRIPOS>ATOM
      1 C1         -0.0167    1.3781    0.0096 C.ar      1 <0>        -0.1171
      2 C2          1.1709    2.0855    0.0021 C.ar      1 <0>        -0.1165
      3 C3          2.3773    1.4107   -0.0130 C.ar      1 <0>        -0.1097
      4 C4          2.3960    0.0285   -0.0201 C.ar      1 <0>        -0.0840
      5 C5          1.2084   -0.6789   -0.0117 C.ar      1 <0>        -0.1135
      6 C6          0.0021   -0.0041    0.0020 C.ar      1 <0>        -0.1162
      7 C7          3.7112   -0.7071   -0.0376 C.3       1 <0>        -0.0344
      8 H1          4.5327    0.0093   -0.0426 H         1 <0>         0.0941
      9 C8          3.7907   -1.5916   -1.2835 C.3       1 <0>        -0.0930
     10 C9          5.0925   -2.3577   -1.2789 C.2       1 <0>         0.2538
     11 C10         5.6718   -2.7329   -0.1185 C.2       1 <0>        -0.3120
     12 C11         6.9659   -3.5158   -0.0820 C.3       1 <0>         0.2762
     13 H2          7.6332   -3.0773    0.6600 H         1 <0>         0.1130
     14 N1          7.6068   -3.4800   -1.3902 N.pl3     1 <0>        -0.3828
     15 C12         6.9758   -3.0732   -2.5196 C.2       1 <0>         0.4868
     16 N2          7.8203   -3.1673   -3.5094 N.2       1 <0>        -0.5442
     17 C13         8.9924   -3.6227   -3.0556 C.2       1 <0>         0.2164
     18 N3          8.9046   -3.8257   -1.7640 N.2       1 <0>        -0.2907
     19 N4          5.6578   -2.6470   -2.4978 N.pl3     1 <0>        -0.6090
     20 C14         6.6745   -4.9466    0.2909 C.ar      1 <0>        -0.1060
     21 C15         5.8460   -5.7130   -0.5079 C.ar      1 <0>        -0.0806
     22 C16         5.5770   -7.0247   -0.1680 C.ar      1 <0>        -0.1480
     23 C17         6.1392   -7.5730    0.9756 C.ar      1 <0>         0.1164
     24 C18         6.9705   -6.8021    1.7752 C.ar      1 <0>        -0.1443
     25 C19         7.2406   -5.4925    1.4282 C.ar      1 <0>        -0.0621
     26 O1          5.8757   -8.8630    1.3123 O.3       1 <0>        -0.4987
     27 C20         5.0892   -2.4019    1.1183 C.2       1 <0>         0.4124
     28 O2          5.6272   -2.7673    2.1449 O.2       1 <0>        -0.4606
     29 C21         3.8169   -1.6053    1.1995 C.3       1 <0>        -0.1567
     30 H3         -0.9591    1.9053    0.0259 H         1 <0>         0.1230
     31 H4          1.1563    3.1654    0.0076 H         1 <0>         0.1240
     32 H5          3.3051    1.9634   -0.0196 H         1 <0>         0.1235
     33 H6          1.2231   -1.7588   -0.0176 H         1 <0>         0.1230
     34 H7         -0.9258   -0.5567    0.0082 H         1 <0>         0.1240
     35 H8          2.9566   -2.2933   -1.2844 H         1 <0>         0.1107
     36 H9          3.7402   -0.9673   -2.1756 H         1 <0>         0.1024
     37 H10         9.8720   -3.7957   -3.6578 H         1 <0>         0.2272
     38 H11         5.1489   -2.5558   -3.3185 H         1 <0>         0.4404
     39 H12         5.4086   -5.2857   -1.3981 H         1 <0>         0.1135
     40 H13         4.9292   -7.6227   -0.7919 H         1 <0>         0.1295
     41 H14         7.4094   -7.2266    2.6660 H         1 <0>         0.1335
     42 H15         7.8912   -4.8932    2.0479 H         1 <0>         0.1317
     43 H16         6.4982   -9.5019    0.9389 H         1 <0>         0.3929
     44 H17         3.8286   -0.9886    2.0981 H         1 <0>         0.1054
     45 H18         2.9641   -2.2834    1.2318 H         1 <0>         0.1067
@<TRIPOS>BOND
     1    1    6 ar
     2    1    2 ar
     3    1   30 1
     4    2    3 ar
     5    2   31 1
     6    3    4 ar
     7    3   32 1
     8    4    5 ar
     9    4    7 1
    10    5    6 ar
    11    5   33 1
    12    6   34 1
    13    7    8 1
    14    7   29 1
    15    7    9 1
    16    9   10 1
    17    9   35 1
    18    9   36 1
    19   10   19 1
    20   10   11 2
    21   11   12 1
    22   11   27 1
    23   12   13 1
    24   12   14 1
    25   12   20 1
    26   14   18 1
    27   14   15 1
    28   15   16 2
    29   15   19 1
    30   16   17 1
    31   17   18 2
    32   17   37 1
    33   19   38 1
    34   20   25 ar
    35   20   21 ar
    36   21   22 ar
    37   21   39 1
    38   22   23 ar
    39   22   40 1
    40   23   24 ar
    41   23   26 1
    42   24   25 ar
    43   24   41 1
    44   25   42 1
    45   26   43 1
    46   27   28 2
    47   27   29 1
    48   29   44 1
    49   29   45 1
@<TRIPOS>MOLECULE
ZINC13127165
   41    44     0     0     0
SMALL
USER_CHARGES

@<TRIPOS>ATOM
      1 C1         -0.0187    1.5258    0.0104 C.3       1 <0>        -0.1590
      2 C2          0.0021   -0.0041    0.0020 C.3       1 <0>         0.1495
      3 H1          0.5119   -0.3581   -0.8940 H         1 <0>         0.0791
      4 C3         -1.4346   -0.5383    0.0217 C.3       1 <0>        -0.1461
      5 C4         -1.4181   -2.0706   -0.0421 C.3       1 <0>         0.2105
      6 H2         -1.1022   -2.3914   -1.0347 H         1 <0>         0.0979
      7 N1         -0.4776   -2.5744    0.9584 N.pl3     1 <0>        -0.4003
      8 C5          0.5007   -1.8310    1.5290 C.2       1 <0>         0.5398
      9 N2          1.1474   -2.5886    2.3737 N.2       1 <0>        -0.5474
     10 C6          0.6143   -3.8193    2.3692 C.2       1 <0>         0.4651
     11 N3         -0.3835   -3.8508    1.5144 N.2       1 <0>        -0.3288
     12 N4          1.0497   -4.8948    3.1480 N.am      1 <0>        -0.6239
     13 C7          2.0884   -4.7384    3.9924 C.2       1 <0>         0.6076
     14 O1          2.6472   -3.6605    4.0768 O.2       1 <0>        -0.4607
     15 C8          2.5450   -5.8663    4.8091 C.2       1 <0>        -0.2589
     16 C9          3.5781   -5.9149    5.7329 C.2       1 <0>        -0.0593
     17 C10         3.7708   -7.1279    6.3495 C.2       1 <0>        -0.1850
     18 C11         2.9632   -8.1678    6.0253 C.2       1 <0>        -0.2166
     19 S1          1.9121   -7.5314    4.8797 S.3       1 <0>         0.2086
     20 N5          0.7079   -0.4965    1.2008 N.pl3     1 <0>        -0.7041
     21 C12        -2.7984   -2.6029    0.2452 C.ar      1 <0>        -0.0932
     22 C13        -3.4098   -2.3224    1.4529 C.ar      1 <0>        -0.0903
     23 C14        -4.6759   -2.8107    1.7164 C.ar      1 <0>        -0.1195
     24 C15        -5.3308   -3.5790    0.7721 C.ar      1 <0>        -0.1096
     25 C16        -4.7198   -3.8587   -0.4359 C.ar      1 <0>        -0.1190
     26 C17        -3.4554   -3.3668   -0.7011 C.ar      1 <0>        -0.0965
     27 H3          1.0039    1.9031    0.0027 H         1 <0>         0.0702
     28 H4         -0.5459    1.8868   -0.8726 H         1 <0>         0.0806
     29 H5         -0.5289    1.8773    0.9072 H         1 <0>         0.0681
     30 H6         -1.9276   -0.2190    0.9399 H         1 <0>         0.0874
     31 H7         -1.9793   -0.1455   -0.8368 H         1 <0>         0.1102
     32 H8          0.6044   -5.7539    3.0807 H         1 <0>         0.4212
     33 H9          4.1925   -5.0545    5.9534 H         1 <0>         0.1525
     34 H10         4.5548   -7.2513    7.0820 H         1 <0>         0.1415
     35 H11         2.9873   -9.1738    6.4174 H         1 <0>         0.1913
     36 H12         1.2811    0.0794    1.7305 H         1 <0>         0.4269
     37 H13        -2.8982   -1.7221    2.1906 H         1 <0>         0.1141
     38 H14        -5.1533   -2.5922    2.6602 H         1 <0>         0.1229
     39 H15        -6.3197   -3.9610    0.9783 H         1 <0>         0.1239
     40 H16        -5.2313   -4.4592   -1.1735 H         1 <0>         0.1255
     41 H17        -2.9795   -3.5822   -1.6464 H         1 <0>         0.1238
@<TRIPOS>BOND
     1    1    2 1
     2    1   27 1
     3    1   28 1
     4    1   29 1
     5    2    3 1
     6    2   20 1
     7    2    4 1
     8    4    5 1
     9    4   30 1
    10    4   31 1
    11    5    6 1
    12    5    7 1
    13    5   21 1
    14    7   11 1
    15    7    8 1
    16    8    9 2
    17    8   20 1
    18    9   10 1
    19   10   11 2
    20   10   12 1
    21   12   13 am
    22   12   32 1
    23   13   14 2
    24   13   15 1
    25   15   19 1
    26   15   16 2
    27   16   17 1
    28   16   33 1
    29   17   18 2
    30   17   34 1
    31   18   19 1
    32   18   35 1
    33   20   36 1
    34   21   26 ar
    35   21   22 ar
    36   22   23 ar
    37   22   37 1
    38   23   24 ar
    39   23   38 1
    40   24   25 ar
    41   24   39 1
    42   25   26 ar
    43   25   40 1
    44   26   41 1
@<TRIPOS>MOLECULE
ZINC66682841
   54    55     0     0     0
SMALL
USER_CHARGES

@<TRIPOS>ATOM
      1 C1         -1.5741    0.9623    0.4882 C.3       1 <0>        -0.1100
      2 C2         -0.7355   -0.2627    0.2292 C.ar      1 <0>         0.0005
      3 C3         -0.8319   -0.9219   -0.9757 C.ar      1 <0>        -0.1603
      4 C4         -0.0578   -2.0525   -1.2158 C.ar      1 <0>         0.1956
      5 C5          0.8164   -2.5212   -0.2397 C.ar      1 <0>        -0.1355
      6 C6          0.9177   -1.8670    0.9670 C.ar      1 <0>        -0.0605
      7 C7          0.1452   -0.7276    1.2095 C.ar      1 <0>        -0.1614
      8 C8          0.2554   -0.0203    2.5001 C.2       1 <0>         0.5614
      9 O1         -0.3343    1.0293    2.6704 O.2       1 <0>        -0.5328
     10 N1          1.0096   -0.5378    3.4900 N.am      1 <0>        -0.7255
     11 C9          1.1189    0.1643    4.7711 C.3       1 <0>         0.1367
     12 C10         1.4613   -0.8386    5.8747 C.3       1 <0>        -0.1623
     13 C11         2.2224    1.2203    4.6814 C.3       1 <0>        -0.1643
     14 N2         -0.1583   -2.7179   -2.4370 N.am      1 <0>        -0.6856
     15 C12        -0.0460   -4.0602   -2.4843 C.2       1 <0>         0.7103
     16 O2          0.2316   -4.6828   -1.4776 O.2       1 <0>        -0.5643
     17 N3         -0.2415   -4.7122   -3.6475 N.am      1 <0>        -0.6253
     18 C13        -0.4927   -3.9751   -4.8961 C.3       1 <0>         0.0785
     19 C14        -1.7406   -4.5649   -5.5630 C.3       1 <0>         0.0717
     20 H1         -2.6175   -4.3443   -4.9543 H         1 <0>         0.0686
     21 O3         -1.5859   -5.9811   -5.6820 O.3       1 <0>        -0.3642
     22 C15        -1.4713   -6.6644   -4.4315 C.3       1 <0>         0.0996
     23 C16        -0.2040   -6.1820   -3.7076 C.3       1 <0>         0.1071
     24 C17        -2.7007   -6.3655   -3.5712 C.3       1 <0>        -0.1748
     25 C18        -1.3738   -8.1710   -4.6795 C.3       1 <0>        -0.1380
     26 C19        -1.9159   -3.9503   -6.9532 C.3       1 <0>        -0.1459
     27 H2         -0.9410    1.8490    0.4581 H         1 <0>         0.0798
     28 H3         -2.3471    1.0416   -0.2762 H         1 <0>         0.0566
     29 H4         -2.0408    0.8822    1.4700 H         1 <0>         0.0862
     30 H5         -1.5097   -0.5610   -1.7352 H         1 <0>         0.1318
     31 H6          1.4157   -3.3994   -0.4292 H         1 <0>         0.1467
     32 H7          1.5964   -2.2312    1.7241 H         1 <0>         0.1283
     33 H8          1.4800   -1.3752    3.3541 H         1 <0>         0.3984
     34 H9          0.1702    0.6488    5.0020 H         1 <0>         0.0894
     35 H10         2.4100   -1.3232    5.6437 H         1 <0>         0.0611
     36 H11         1.5427   -0.3163    6.8279 H         1 <0>         0.0741
     37 H12         0.6752   -1.5910    5.9386 H         1 <0>         0.0622
     38 H13         2.3038    1.7427    5.6346 H         1 <0>         0.0663
     39 H14         3.1711    0.7358    4.4505 H         1 <0>         0.0563
     40 H15         1.9785    1.9348    3.8952 H         1 <0>         0.0609
     41 H16        -0.3090   -2.2148   -3.2525 H         1 <0>         0.4075
     42 H17        -0.6590   -2.9212   -4.6731 H         1 <0>         0.0843
     43 H18         0.3636   -4.0791   -5.5624 H         1 <0>         0.0846
     44 H19         0.6809   -6.5045   -4.2564 H         1 <0>         0.0783
     45 H20        -0.1790   -6.5902   -2.6973 H         1 <0>         0.1052
     46 H21        -3.5978   -6.7046   -4.0893 H         1 <0>         0.0674
     47 H22        -2.6126   -6.8868   -2.6180 H         1 <0>         0.0703
     48 H23        -2.7676   -5.2921   -3.3935 H         1 <0>         0.0576
     49 H24        -0.4964   -8.3827   -5.2905 H         1 <0>         0.0677
     50 H25        -1.2865   -8.6913   -3.7256 H         1 <0>         0.0761
     51 H26        -2.2692   -8.5124   -5.1989 H         1 <0>         0.0704
     52 H27        -1.0395   -4.1728   -7.5619 H         1 <0>         0.0680
     53 H28        -2.8033   -4.3701   -7.4268 H         1 <0>         0.0708
     54 H29        -2.0296   -2.8702   -6.8612 H         1 <0>         0.0744
@<TRIPOS>BOND
     1    1    2 1
     2    1   27 1
     3    1   28 1
     4    1   29 1
     5    2    7 ar
     6    2    3 ar
     7    3    4 ar
     8    3   30 1
     9    4    5 ar
    10    4   14 1
    11    5    6 ar
    12    5   31 1
    13    6    7 ar
    14    6   32 1
    15    7    8 1
    16    8    9 2
    17    8   10 am
    18   10   11 1
    19   10   33 1
    20   11   12 1
    21   11   13 1
    22   11   34 1
    23   12   35 1
    24   12   36 1
    25   12   37 1
    26   13   38 1
    27   13   39 1
    28   13   40 1
    29   14   15 am
    30   14   41 1
    31   15   16 2
    32   15   17 am
    33   17   23 1
    34   17   18 1
    35   18   19 1
    36   18   42 1
    37   18   43 1
    38   19   20 1
    39   19   21 1
    40   19   26 1
    41   21   22 1
    42   22   23 1
    43   22   24 1
    44   22   25 1
    45   23   44 1
    46   23   45 1
    47   24   46 1
    48   24   47 1
    49   24   48 1
    50   25   49 1
    51   25   50 1
    52   25   51 1
    53   26   52 1
    54   26   53 1
    55   26   54 1
@<TRIPOS>MOLECULE
ZINC37267890
   42    43     0     0     0
SMALL
USER_CHARGES

@<TRIPOS>ATOM
      1 C1         -0.0244    1.4654    0.0109 C.3       1 <0>        -0.0462
      2 N1         -0.0031   -0.0034    0.0026 N.4       1 <0>        -0.3861
      3 C2         -1.3802   -0.5113    0.0042 C.3       1 <0>        -0.0001
      4 C3         -1.3646   -2.0388   -0.0862 C.3       1 <0>        -0.1568
      5 C4         -0.6075   -2.6082    1.1170 C.3       1 <0>         0.1564
      6 C5          0.8037   -2.0142    1.1473 C.3       1 <0>        -0.1628
      7 C6          0.7078   -0.4876    1.1920 C.3       1 <0>        -0.0025
      8 N2         -0.5230   -4.0658    0.9975 N.am      1 <0>        -0.7511
      9 C7         -0.3758   -4.8251    2.1013 C.2       1 <0>         0.7045
     10 O1         -0.2208   -4.2976    3.1858 O.2       1 <0>        -0.5858
     11 N3         -0.4005   -6.1690    2.0031 N.am      1 <0>        -0.6176
     12 C8         -0.4700   -6.8223    0.6889 C.3       1 <0>         0.1133
     13 C9         -1.6534   -7.7951    0.6838 C.3       1 <0>        -0.1351
     14 C10        -1.5175   -8.7637    1.8608 C.3       1 <0>        -0.0965
     15 C11        -1.5427   -7.9793    3.1747 C.3       1 <0>        -0.1668
     16 H1         -2.4746   -7.4185    3.2458 H         1 <0>         0.0650
     17 C12        -0.3523   -7.0087    3.2077 C.3       1 <0>         0.1527
     18 C13        -1.4421   -8.9368    4.3341 C.2       1 <0>         0.4973
     19 O2         -0.9126   -8.5820    5.3735 O.co2     1 <0>        -0.6939
     20 O3         -1.8901  -10.0661    4.2327 O.co2     1 <0>        -0.6904
     21 H2          0.9978    1.8437    0.0030 H         1 <0>         0.1229
     22 H3         -0.5521    1.8261   -0.8720 H         1 <0>         0.1224
     23 H4         -0.5348    1.8163    0.9078 H         1 <0>         0.1220
     24 H5         -1.8780   -0.2073    0.9250 H         1 <0>         0.1323
     25 H6         -1.9187   -0.1027   -0.8508 H         1 <0>         0.1341
     26 H7         -2.3880   -2.4140   -0.0830 H         1 <0>         0.1191
     27 H8         -0.8672   -2.3438   -1.0068 H         1 <0>         0.0922
     28 H9         -1.1329   -2.3464    2.0355 H         1 <0>         0.1031
     29 H10         1.3302   -2.3718    2.0322 H         1 <0>         0.1209
     30 H11         1.3461   -2.3187    0.2523 H         1 <0>         0.0873
     31 H12         1.7108   -0.0615    1.2139 H         1 <0>         0.1321
     32 H13         0.1655   -0.1842    2.0875 H         1 <0>         0.1318
     33 H14        -0.5729   -4.4846    0.1240 H         1 <0>         0.3981
     34 H15        -0.6125   -6.0695   -0.0864 H         1 <0>         0.0636
     35 H16         0.4540   -7.3700    0.5038 H         1 <0>         0.0711
     36 H17        -2.5843   -7.2360    0.7783 H         1 <0>         0.0611
     37 H18        -1.6589   -8.3564   -0.2506 H         1 <0>         0.0708
     38 H19        -2.3453   -9.4726    1.8452 H         1 <0>         0.0739
     39 H20        -0.5748   -9.3047    1.7789 H         1 <0>         0.0579
     40 H21         0.5811   -7.5713    3.2239 H         1 <0>         0.0648
     41 H22        -0.4172   -6.3789    4.0950 H         1 <0>         0.0976
     42 H23         0.4717   -0.3272   -0.8268 H         1 <0>         0.4236
@<TRIPOS>BOND
     1    1    2 1
     2    1   21 1
     3    1   22 1
     4    1   23 1
     5    2    7 1
     6    2    3 1
     7    2   42 1
     8    3    4 1
     9    3   24 1
    10    3   25 1
    11    4    5 1
    12    4   26 1
    13    4   27 1
    14    5    6 1
    15    5    8 1
    16    5   28 1
    17    6    7 1
    18    6   29 1
    19    6   30 1
    20    7   31 1
    21    7   32 1
    22    8    9 am
    23    8   33 1
    24    9   10 2
    25    9   11 am
    26   11   17 1
    27   11   12 1
    28   12   13 1
    29   12   34 1
    30   12   35 1
    31   13   14 1
    32   13   36 1
    33   13   37 1
    34   14   15 1
    35   14   38 1
    36   14   39 1
    37   15   16 1
    38   15   17 1
    39   15   18 1
    40   17   40 1
    41   17   41 1
    42   18   19 2
    43   18   20 1
@<TRIPOS>MOLECULE
ZINC40325725
   44    46     0     0     0
SMALL
USER_CHARGES

@<TRIPOS>ATOM
      1 C1         -0.0187    1.5258    0.0104 C.3       1 <0>        -0.1549
      2 C2          0.0021   -0.0041    0.0020 C.3       1 <0>        -0.0877
      3 H1          0.5121   -0.3565   -0.8945 H         1 <0>         0.0754
      4 C3         -1.4345   -0.5355    0.0159 C.3       1 <0>        -0.1316
      5 C4         -2.1600   -0.0294    1.2655 C.3       1 <0>         0.1029
      6 N1         -1.3694   -0.3778    2.4561 N.am      1 <0>        -0.6092
      7 C5          0.0397    0.0279    2.4949 C.3       1 <0>         0.1539
      8 H2          0.1049    1.1159    2.5079 H         1 <0>         0.0744
      9 C6          0.7383   -0.5114    1.2409 C.3       1 <0>        -0.0939
     10 H3          0.7150   -1.6011    1.2547 H         1 <0>         0.0733
     11 C7          2.1922   -0.0415    1.2355 C.3       1 <0>        -0.1117
     12 C8          2.8993   -0.5918    2.4775 C.3       1 <0>        -0.1218
     13 C9          2.1964   -0.0917    3.7401 C.3       1 <0>        -0.1268
     14 C10         0.7279   -0.5392    3.7356 C.3       1 <0>        -0.1061
     15 C11        -1.9246   -1.0510    3.4832 C.2       1 <0>         0.5011
     16 O1         -1.2573   -1.3297    4.4569 O.2       1 <0>        -0.4975
     17 C12        -3.3744   -1.4573    3.4219 C.3       1 <0>         0.1255
     18 N2         -3.7340   -2.1706    4.6500 N.pl3     1 <0>        -0.3642
     19 C13        -4.7572   -1.8557    5.4883 C.2       1 <0>        -0.0378
     20 C14        -4.7488   -2.7585    6.5014 C.2       1 <0>         0.0664
     21 C15        -3.6902   -3.6497    6.2747 C.2       1 <0>         0.0052
     22 N3         -3.0886   -3.3017    5.1659 N.2       1 <0>        -0.2427
     23 N4         -5.6442   -2.7941    7.5874 N.pl3     1 <0>        -0.8764
     24 H4          1.0039    1.9031    0.0027 H         1 <0>         0.0595
     25 H5         -0.5459    1.8868   -0.8726 H         1 <0>         0.0561
     26 H6         -0.5289    1.8773    0.9072 H         1 <0>         0.0575
     27 H7         -1.9586   -0.1869   -0.8740 H         1 <0>         0.0791
     28 H8         -1.4179   -1.6253    0.0225 H         1 <0>         0.0687
     29 H9         -2.2737    1.0531    1.2076 H         1 <0>         0.0761
     30 H10        -3.1425   -0.4970    1.3309 H         1 <0>         0.0821
     31 H11         2.6910   -0.4094    0.3389 H         1 <0>         0.0657
     32 H12         2.2234    1.0479    1.2508 H         1 <0>         0.0664
     33 H13         2.8735   -1.6813    2.4561 H         1 <0>         0.0610
     34 H14         3.9361   -0.2553    2.4829 H         1 <0>         0.0620
     35 H15         2.6965   -0.4993    4.6186 H         1 <0>         0.0644
     36 H16         2.2405    0.9969    3.7721 H         1 <0>         0.0579
     37 H17         0.2278   -0.1699    4.6309 H         1 <0>         0.0857
     38 H18         0.6811   -1.6280    3.7129 H         1 <0>         0.0716
     39 H19        -3.9971   -0.5682    3.3226 H         1 <0>         0.1203
     40 H20        -3.5329   -2.1097    2.5632 H         1 <0>         0.1090
     41 H21        -5.4501   -1.0358    5.3697 H         1 <0>         0.1679
     42 H22        -3.4203   -4.4840    6.9052 H         1 <0>         0.1804
     43 H23        -6.3481   -2.1304    7.6576 H         1 <0>         0.3950
     44 H24        -5.5571   -3.4823    8.2655 H         1 <0>         0.3980
@<TRIPOS>BOND
     1    1    2 1
     2    1   24 1
     3    1   25 1
     4    1   26 1
     5    2    3 1
     6    2    9 1
     7    2    4 1
     8    4    5 1
     9    4   27 1
    10    4   28 1
    11    5    6 1
    12    5   29 1
    13    5   30 1
    14    6    7 1
    15    6   15 am
    16    7    8 1
    17    7   14 1
    18    7    9 1
    19    9   10 1
    20    9   11 1
    21   11   12 1
    22   11   31 1
    23   11   32 1
    24   12   13 1
    25   12   33 1
    26   12   34 1
    27   13   14 1
    28   13   35 1
    29   13   36 1
    30   14   37 1
    31   14   38 1
    32   15   16 2
    33   15   17 1
    34   17   18 1
    35   17   39 1
    36   17   40 1
    37   18   22 1
    38   18   19 1
    39   19   20 2
    40   19   41 1
    41   20   21 1
    42   20   23 1
    43   21   22 2
    44   21   42 1
    45   23   43 1
    46   23   44 1
@<TRIPOS>MOLECULE
ZINC44782660
   45    47     0     0     0
SMALL
USER_CHARGES

@<TRIPOS>ATOM
      1 C1         -0.2069    1.5096    0.1232 C.3       1 <0>        -0.1285
      2 C2          1.1921    2.1117   -0.0096 C.3       1 <0>        -0.1191
      3 C3          1.8355    1.6573   -1.3236 C.3       1 <0>        -0.1090
      4 C4          1.9200    0.1328   -1.3314 C.3       1 <0>         0.0798
      5 H1          2.4989   -0.2005   -0.4700 H         1 <0>         0.0628
      6 C5          0.5023   -0.4451   -1.2438 C.3       1 <0>         0.1157
      7 H2         -0.0967   -0.0704   -2.0738 H         1 <0>         0.0822
      8 C6         -0.1248   -0.0197    0.0821 C.3       1 <0>        -0.1053
      9 N1          0.6025   -1.9076   -1.3306 N.am      1 <0>        -0.6021
     10 C7          1.3642   -2.4662   -2.4620 C.3       1 <0>         0.0349
     11 C8          2.7255   -1.7679   -2.5358 C.3       1 <0>         0.0509
     12 O1          2.5321   -0.3483   -2.5256 O.3       1 <0>        -0.3715
     13 C9          0.0222   -2.7062   -0.4131 C.2       1 <0>         0.5279
     14 O2         -0.5303   -2.2203    0.5511 O.2       1 <0>        -0.5101
     15 C10         0.0597   -4.2028   -0.5852 C.3       1 <0>        -0.0725
     16 C11        -0.8508   -4.8614    0.4558 C.3       1 <0>        -0.1245
     17 C12        -0.3171   -4.5530    1.8571 C.3       1 <0>         0.0493
     18 O3          1.0294   -5.0192    1.9658 O.3       1 <0>        -0.3753
     19 C13         1.9359   -4.4035    1.0486 C.3       1 <0>         0.0593
     20 C14         1.4927   -4.7058   -0.3852 C.3       1 <0>        -0.1413
     21 C15        -0.4123   -4.5630   -1.9703 C.2       1 <0>         0.2908
     22 S1          0.4856   -5.5027   -2.9018 S.2       1 <0>        -0.4207
     23 N2         -1.5912   -4.0930   -2.4240 N.pl3     1 <0>        -0.7697
     24 H3         -0.6473    1.8229    1.0697 H         1 <0>         0.0708
     25 H4         -0.8313    1.8606   -0.6984 H         1 <0>         0.0624
     26 H5          1.1203    3.1993    0.0008 H         1 <0>         0.0728
     27 H6          1.8083    1.7834    0.8274 H         1 <0>         0.0650
     28 H7          1.2272    1.9935   -2.1633 H         1 <0>         0.0737
     29 H8          2.8374    2.0789   -1.4045 H         1 <0>         0.0776
     30 H9          0.4916   -0.3746    0.9080 H         1 <0>         0.0738
     31 H10        -1.1265   -0.4414    0.1642 H         1 <0>         0.0892
     32 H11         1.5103   -3.5358   -2.3111 H         1 <0>         0.1254
     33 H12         0.8167   -2.2979   -3.3893 H         1 <0>         0.0788
     34 H13         3.3322   -2.0655   -1.6805 H         1 <0>         0.0596
     35 H14         3.2320   -2.0579   -3.4564 H         1 <0>         0.1130
     36 H15        -1.8622   -4.4673    0.3564 H         1 <0>         0.0799
     37 H16        -0.8621   -5.9400    0.2995 H         1 <0>         0.0883
     38 H17        -0.3440   -3.4768    2.0277 H         1 <0>         0.0866
     39 H18        -0.9366   -5.0546    2.6006 H         1 <0>         0.0987
     40 H19         1.9384   -3.3253    1.2086 H         1 <0>         0.0467
     41 H20         2.9394   -4.7974    1.2096 H         1 <0>         0.1058
     42 H21         1.5287   -5.7814   -0.5585 H         1 <0>         0.1124
     43 H22         2.1572   -4.2006   -1.0861 H         1 <0>         0.0930
     44 H23        -2.1693   -3.5836   -1.8348 H         1 <0>         0.3990
     45 H24        -1.8615   -4.2642   -3.3397 H         1 <0>         0.4233
@<TRIPOS>BOND
     1    1    8 1
     2    1    2 1
     3    1   24 1
     4    1   25 1
     5    2    3 1
     6    2   26 1
     7    2   27 1
     8    3    4 1
     9    3   28 1
    10    3   29 1
    11    4    5 1
    12    4   12 1
    13    4    6 1
    14    6    7 1
    15    6    8 1
    16    6    9 1
    17    8   30 1
    18    8   31 1
    19    9   10 1
    20    9   13 am
    21   10   11 1
    22   10   32 1
    23   10   33 1
    24   11   12 1
    25   11   34 1
    26   11   35 1
    27   13   14 2
    28   13   15 1
    29   15   20 1
    30   15   16 1
    31   15   21 1
    32   16   17 1
    33   16   36 1
    34   16   37 1
    35   17   18 1
    36   17   38 1
    37   17   39 1
    38   18   19 1
    39   19   20 1
    40   19   40 1
    41   19   41 1
    42   20   42 1
    43   20   43 1
    44   21   22 2
    45   21   23 1
    46   23   44 1
    47   23   45 1
@<TRIPOS>MOLECULE
ZINC51750510
   40    41     0     0     0
SMALL
USER_CHARGES

@<TRIPOS>ATOM
      1 C1          1.2380    1.9279    0.3319 C.3       1 <0>        -0.1482
      2 C2          0.8943    0.4482    0.1501 C.3       1 <0>        -0.0945
      3 H1         -0.1808    0.3400    0.0069 H         1 <0>         0.0763
      4 C3          1.6295   -0.0991   -1.0756 C.3       1 <0>        -0.1313
      5 C4          1.2561   -1.5714   -1.2747 C.3       1 <0>         0.0922
      6 N1          1.5315   -2.3017   -0.0299 N.am      1 <0>        -0.5980
      7 C5          0.9468   -1.8066    1.2238 C.3       1 <0>         0.1356
      8 H2          1.3377   -2.3833    2.0621 H         1 <0>         0.1024
      9 C6          1.3240   -0.3317    1.3948 C.3       1 <0>        -0.1242
     10 C7         -0.5758   -1.9471    1.1702 C.3       1 <0>        -0.1630
     11 C8          2.3055   -3.4051   -0.0380 C.2       1 <0>         0.5557
     12 O1          2.6134   -3.9391    1.0096 O.2       1 <0>        -0.5245
     13 C9          2.7801   -3.9658   -1.3210 C.ar      1 <0>        -0.0672
     14 C10         4.0884   -4.4375   -1.4386 C.ar      1 <0>        -0.0886
     15 C11         4.5248   -4.9600   -2.6385 C.ar      1 <0>        -0.0194
     16 C12         3.6688   -5.0165   -3.7241 C.ar      1 <0>        -0.6597
     17 C13         2.3708   -4.5501   -3.6144 C.ar      1 <0>        -0.0231
     18 C14         1.9200   -4.0310   -2.4183 C.ar      1 <0>        -0.1135
     19 S1          4.2344   -5.6847   -5.2532 S.o2      1 <0>         2.7017
     20 O2          3.4135   -5.1254   -6.2693 O.2       1 <0>        -0.9590
     21 O3          5.6491   -5.5503   -5.2567 O.2       1 <0>        -0.9586
     22 N2          3.9135   -7.3091   -5.2262 N.pl3     1 <0>        -1.2488
     23 H3          2.3131    2.0363    0.4751 H         1 <0>         0.0548
     24 H4          0.9317    2.4837   -0.5543 H         1 <0>         0.0567
     25 H5          0.7141    2.3181    1.2045 H         1 <0>         0.0569
     26 H6          1.3409    0.4720   -1.9580 H         1 <0>         0.0795
     27 H7          2.7053   -0.0141   -0.9225 H         1 <0>         0.0688
     28 H8          0.1964   -1.6500   -1.5176 H         1 <0>         0.0756
     29 H9          1.8510   -1.9929   -2.0849 H         1 <0>         0.0936
     30 H10         2.4027   -0.2445    1.5244 H         1 <0>         0.0682
     31 H11         0.8179    0.0738    2.2709 H         1 <0>         0.0785
     32 H12        -0.8394   -2.9964    1.0370 H         1 <0>         0.0587
     33 H13        -1.0076   -1.5794    2.1010 H         1 <0>         0.0717
     34 H14        -0.9651   -1.3658    0.3344 H         1 <0>         0.0624
     35 H15         4.7578   -4.3933   -0.5922 H         1 <0>         0.1446
     36 H16         5.5369   -5.3253   -2.7308 H         1 <0>         0.1524
     37 H17         1.7078   -4.5967   -4.4656 H         1 <0>         0.1517
     38 H18         0.9051   -3.6718   -2.3326 H         1 <0>         0.1432
     39 H19         3.4868   -7.7064   -4.4509 H         1 <0>         0.4177
     40 H20         4.1521   -7.8633   -5.9857 H         1 <0>         0.4229
@<TRIPOS>BOND
     1    1    2 1
     2    1   23 1
     3    1   24 1
     4    1   25 1
     5    2    3 1
     6    2    9 1
     7    2    4 1
     8    4    5 1
     9    4   26 1
    10    4   27 1
    11    5    6 1
    12    5   28 1
    13    5   29 1
    14    6    7 1
    15    6   11 am
    16    7    8 1
    17    7    9 1
    18    7   10 1
    19    9   30 1
    20    9   31 1
    21   10   32 1
    22   10   33 1
    23   10   34 1
    24   11   12 2
    25   11   13 1
    26   13   18 ar
    27   13   14 ar
    28   14   15 ar
    29   14   35 1
    30   15   16 ar
    31   15   36 1
    32   16   17 ar
    33   16   19 1
    34   17   18 ar
    35   17   37 1
    36   18   38 1
    37   19   20 2
    38   19   21 2
    39   19   22 1
    40   22   39 1
    41   22   40 1
@<TRIPOS>MOLECULE
ZINC65518295
   33    34     0     0     0
SMALL
USER_CHARGES

@<TRIPOS>ATOM
      1 C1         -0.0184    1.5028    0.0103 C.3       1 <0>        -0.0821
      2 C2          0.0021   -0.0041    0.0020 C.2       1 <0>         0.0528
      3 C3         -1.0936   -0.8169    0.0027 C.2       1 <0>        -0.2022
      4 C4         -0.5678   -2.1902   -0.0072 C.2       1 <0>        -0.1646
      5 C5          0.7695   -2.0730   -0.0128 C.2       1 <0>         0.0461
      6 O1          1.0965   -0.7708   -0.0130 O.3       1 <0>        -0.1584
      7 C6          1.7473   -3.2196   -0.0235 C.3       1 <0>        -0.0842
      8 Br1        -1.5705   -3.7935   -0.0113 Br        1 <0>         0.0036
      9 C7         -2.5084   -0.4049    0.0118 C.2       1 <0>         0.6127
     10 O2         -3.0973   -0.2288   -1.0375 O.2       1 <0>        -0.5183
     11 N1         -3.1498   -0.2231    1.1832 N.am      1 <0>        -0.6088
     12 C8         -2.5595   -0.3941    2.5188 C.3       1 <0>         0.1003
     13 C9         -3.6548   -0.0529    3.5510 C.3       1 <0>        -0.1119
     14 C10        -4.6325    0.8371    2.7388 C.3       1 <0>        -0.1288
     15 H1         -4.2849    1.8696    2.7055 H         1 <0>         0.1144
     16 C11        -4.5576    0.1863    1.3375 C.3       1 <0>         0.1200
     17 C12        -6.0285    0.7581    3.3008 C.2       1 <0>         0.5305
     18 O3         -6.2550    0.0598    4.2662 O.2       1 <0>        -0.5336
     19 N2         -7.0254    1.4633    2.7305 N.am      1 <0>        -0.8525
     20 H2          1.0042    1.8801    0.0026 H         1 <0>         0.0887
     21 H3         -0.5455    1.8639   -0.8728 H         1 <0>         0.0953
     22 H4         -0.5286    1.8543    0.9071 H         1 <0>         0.0918
     23 H5          1.9783   -3.4905   -1.0537 H         1 <0>         0.0935
     24 H6          2.6626   -2.9214    0.4877 H         1 <0>         0.0878
     25 H7          1.3082   -4.0764    0.4877 H         1 <0>         0.0972
     26 H8         -2.2341   -1.4260    2.6510 H         1 <0>         0.0760
     27 H9         -1.7130    0.2820    2.6394 H         1 <0>         0.0722
     28 H10        -4.1541   -0.9579    3.8970 H         1 <0>         0.0952
     29 H11        -3.2348    0.5019    4.3900 H         1 <0>         0.0920
     30 H12        -4.8289    0.9092    0.5681 H         1 <0>         0.0895
     31 H13        -5.2129   -0.6834    1.2901 H         1 <0>         0.0770
     32 H14        -6.8443    2.0218    1.9584 H         1 <0>         0.4035
     33 H15        -7.9240    1.4125    3.0922 H         1 <0>         0.4052
@<TRIPOS>BOND
     1    1    2 1
     2    1   20 1
     3    1   21 1
     4    1   22 1
     5    2    6 1
     6    2    3 2
     7    3    4 1
     8    3    9 1
     9    4    5 2
    10    4    8 1
    11    5    6 1
    12    5    7 1
    13    7   23 1
    14    7   24 1
    15    7   25 1
    16    9   10 2
    17    9   11 am
    18   11   16 1
    19   11   12 1
    20   12   13 1
    21   12   26 1
    22   12   27 1
    23   13   14 1
    24   13   28 1
    25   13   29 1
    26   14   15 1
    27   14   16 1
    28   14   17 1
    29   16   30 1
    30   16   31 1
    31   17   18 2
    32   17   19 am
    33   19   32 1
    34   19   33 1
@<TRIPOS>MOLECULE
ZINC16622859
   36    37     0     0     0
SMALL
USER_CHARGES
N-[5-[[(3R)-3-methyl-1-piperidyl]sulfonyl]thiazol-2-yl]acetamide
@<TRIPOS>ATOM
      1 C1         -0.8932    4.3468    4.4460 C.3       1 <0>        -0.1488
      2 C2          0.2693    3.8088    3.6092 C.3       1 <0>        -0.1083
      3 H1          0.0862    2.7632    3.3619 H         1 <0>         0.0737
      4 C3          1.5698    3.9248    4.4074 C.3       1 <0>        -0.1132
      5 C4          2.7281    3.3568    3.5840 C.3       1 <0>        -0.1366
      6 C5          2.8786    4.1689    2.2938 C.3       1 <0>         0.1182
      7 N1          1.5885    4.1832    1.5908 N.pl3     1 <0>        -0.9927
      8 C6          0.3929    4.6314    2.3176 C.3       1 <0>         0.1222
      9 S1          1.4852    3.7096    0.0073 S.o2      1 <0>         2.7314
     10 O1          2.7782    3.8869   -0.5548 O.2       1 <0>        -0.9462
     11 O2          0.3286    4.3367   -0.5295 O.2       1 <0>        -0.9423
     12 C7          1.1669    1.9766    0.0015 C.2       1 <0>        -0.8225
     13 C8         -0.0158    1.3144    0.0093 C.2       1 <0>         0.2154
     14 N2          0.0021   -0.0041    0.0020 N.2       1 <0>        -0.5350
     15 C9          1.1391   -0.6720   -0.0124 C.2       1 <0>         0.3352
     16 S2          2.3141    0.6067   -0.0168 S.3       1 <0>         0.1786
     17 N3          1.3444   -2.0467   -0.0218 N.am      1 <0>        -0.6194
     18 C10         0.2896   -2.8856   -0.0167 C.2       1 <0>         0.5050
     19 O3         -0.8387   -2.4410   -0.0040 O.2       1 <0>        -0.4650
     20 C11         0.5122   -4.3760   -0.0268 C.3       1 <0>        -0.1645
     21 H2         -0.7102    5.3928    4.6920 H         1 <0>         0.0591
     22 H3         -1.8192    4.2640    3.8771 H         1 <0>         0.0592
     23 H4         -0.9782    3.7669    5.3650 H         1 <0>         0.0591
     24 H5          1.4763    3.3642    5.3375 H         1 <0>         0.0657
     25 H6          1.7649    4.9731    4.6335 H         1 <0>         0.0674
     26 H7          2.5221    2.3154    3.3365 H         1 <0>         0.0654
     27 H8          3.6500    3.4183    4.1622 H         1 <0>         0.0781
     28 H9          3.6357    3.7089    1.6587 H         1 <0>         0.0908
     29 H10         3.1736    5.1897    2.5369 H         1 <0>         0.0799
     30 H11         0.4893    5.6891    2.5626 H         1 <0>         0.0805
     31 H12        -0.4906    4.4767    1.6982 H         1 <0>         0.0924
     32 H13        -0.9512    1.8542    0.0167 H         1 <0>         0.1866
     33 H14         2.2468   -2.4022   -0.0319 H         1 <0>         0.4318
     34 H15         1.5822   -4.5836   -0.0377 H         1 <0>         0.0838
     35 H16         0.0658   -4.8161    0.8649 H         1 <0>         0.1072
     36 H17         0.0495   -4.8065   -0.9150 H         1 <0>         0.1075
@<TRIPOS>BOND
     1    1    2 1
     2    1   21 1
     3    1   22 1
     4    1   23 1
     5    2    3 1
     6    2    8 1
     7    2    4 1
     8    4    5 1
     9    4   24 1
    10    4   25 1
    11    5    6 1
    12    5   26 1
    13    5   27 1
    14    6    7 1
    15    6   28 1
    16    6   29 1
    17    7    8 1
    18    7    9 1
    19    8   30 1
    20    8   31 1
    21    9   10 2
    22    9   11 2
    23    9   12 1
    24   12   16 1
    25   12   13 2
    26   13   14 1
    27   13   32 1
    28   14   15 2
    29   15   16 1
    30   15   17 1
    31   17   18 am
    32   17   33 1
    33   18   19 2
    34   18   20 1
    35   20   34 1
    36   20   35 1
    37   20   36 1
@<TRIPOS>MOLECULE
ZINC40445513
   36    38     0     0     0
SMALL
USER_CHARGES

@<TRIPOS>ATOM
      1 C1         -0.0184    1.5028    0.0103 C.3       1 <0>        -0.1108
      2 C2          0.0021   -0.0041    0.0020 C.2       1 <0>         0.2675
      3 C3         -1.1970   -0.7121    0.0039 C.2       1 <0>        -0.3263
      4 C4         -1.1598   -2.0932   -0.0038 C.2       1 <0>         0.4941
      5 N1          0.0547   -2.7164   -0.0130 N.pl3     1 <0>        -0.3649
      6 C5          1.2053   -1.9793   -0.0145 C.2       1 <0>         0.4871
      7 N2          1.1534   -0.6424   -0.0124 N.2       1 <0>        -0.5029
      8 N3          2.2200   -2.8368   -0.0236 N.2       1 <0>        -0.5356
      9 C6          1.7561   -4.0804   -0.0279 C.2       1 <0>         0.2622
     10 N4          0.4456   -4.0614   -0.0217 N.2       1 <0>        -0.3547
     11 N5         -2.3252   -2.8268   -0.0017 N.pl3     1 <0>        -0.7046
     12 C7         -3.6210   -2.1433    0.0087 C.3       1 <0>         0.2470
     13 H1         -3.5465   -1.2324    0.6027 H         1 <0>         0.1157
     14 C8         -4.0209   -1.7864   -1.4243 C.3       1 <0>        -0.1695
     15 C9         -4.6630   -3.0512    0.6097 C.2       1 <0>        -0.2424
     16 C10        -5.6293   -2.7767    1.5230 C.2       1 <0>         0.0974
     17 N6         -6.4161   -3.7730    1.8778 N.2       1 <0>        -0.5170
     18 C11        -6.2694   -4.9713    1.3702 C.2       1 <0>         0.0722
     19 S1         -4.9740   -4.7841    0.3121 S.3       1 <0>         0.1135
     20 C12        -7.0704   -6.2148    1.6588 C.3       1 <0>        -0.0706
     21 C13        -5.7944   -1.3965    2.1049 C.3       1 <0>        -0.0874
     22 H2          1.0042    1.8801    0.0026 H         1 <0>         0.0886
     23 H3         -0.5455    1.8639   -0.8728 H         1 <0>         0.0929
     24 H4         -0.5286    1.8543    0.9071 H         1 <0>         0.0928
     25 H5         -2.1421   -0.1894    0.0117 H         1 <0>         0.1670
     26 H6          2.3656   -4.9719   -0.0353 H         1 <0>         0.2317
     27 H7         -2.2882   -3.7960   -0.0071 H         1 <0>         0.4160
     28 H8         -4.0953   -2.6973   -2.0183 H         1 <0>         0.0665
     29 H9         -4.9849   -1.2779   -1.4166 H         1 <0>         0.0819
     30 H10        -3.2672   -1.1297   -1.8590 H         1 <0>         0.0759
     31 H11        -7.9125   -6.2728    0.9691 H         1 <0>         0.0941
     32 H12        -6.4366   -7.0926    1.5331 H         1 <0>         0.0887
     33 H13        -7.4416   -6.1783    2.6830 H         1 <0>         0.0962
     34 H14        -6.4829   -0.8212    1.4860 H         1 <0>         0.0818
     35 H15        -6.1931   -1.4739    3.1164 H         1 <0>         0.0801
     36 H16        -4.8265   -0.8960    2.1333 H         1 <0>         0.0756
@<TRIPOS>BOND
     1    1    2 1
     2    1   22 1
     3    1   23 1
     4    1   24 1
     5    2    7 2
     6    2    3 1
     7    3    4 2
     8    3   25 1
     9    4    5 1
    10    4   11 1
    11    5   10 1
    12    5    6 1
    13    6    7 1
    14    6    8 2
    15    8    9 1
    16    9   10 2
    17    9   26 1
    18   11   12 1
    19   11   27 1
    20   12   13 1
    21   12   14 1
    22   12   15 1
    23   14   28 1
    24   14   29 1
    25   14   30 1
    26   15   19 1
    27   15   16 2
    28   16   17 1
    29   16   21 1
    30   17   18 2
    31   18   19 1
    32   18   20 1
    33   20   31 1
    34   20   32 1
    35   20   33 1
    36   21   34 1
    37   21   35 1
    38   21   36 1
@<TRIPOS>MOLECULE
ZINC55246802
   35    37     0     0     0
SMALL
USER_CHARGES

@<TRIPOS>ATOM
      1 C1         -0.0184    1.5028    0.0103 C.3       1 <0>        -0.0912
      2 C2          0.0021   -0.0041    0.0020 C.2       1 <0>         0.1531
      3 C3          0.0060   -0.7217   -1.1737 C.2       1 <0>        -0.2767
      4 S1          0.0318   -2.3903   -0.5375 S.3       1 <0>         0.1568
      5 C4          0.0348   -2.0122    1.1026 C.2       1 <0>         0.0390
      6 N1          0.0225   -0.6986    1.1125 N.2       1 <0>        -0.5208
      7 C5         -0.0077   -0.2476   -2.5617 C.2       1 <0>         0.6351
      8 O1         -0.0255    0.9462   -2.7967 O.2       1 <0>        -0.5086
      9 N2         -0.0007   -1.1342   -3.5768 N.am      1 <0>        -0.5992
     10 C6          0.0140   -2.6016   -3.4358 C.3       1 <0>         0.0904
     11 C7         -0.5960   -3.1330   -4.7569 C.3       1 <0>        -0.1258
     12 C8         -0.0232   -2.1280   -5.7909 C.3       1 <0>        -0.1238
     13 C9         -0.0127   -0.7982   -5.0080 C.3       1 <0>         0.1314
     14 H1         -0.9051   -0.2191   -5.2454 H         1 <0>         0.1098
     15 C10         1.2223   -0.0093   -5.3597 C.2       1 <0>         0.5027
     16 O2          2.1851   -0.0294   -4.6224 O.2       1 <0>        -0.4503
     17 N3          1.2568    0.7186   -6.4934 N.am      1 <0>        -0.6208
     18 C11         2.3958    1.4463   -6.8178 C.2       1 <0>         0.2746
     19 N4          3.5249    1.5384   -6.1491 N.2       1 <0>        -0.5225
     20 C12         4.5232    2.2785   -6.5945 C.2       1 <0>         0.0632
     21 C13         4.3298    2.9339   -7.7653 C.2       1 <0>        -0.2443
     22 S2          2.6680    2.4176   -8.1650 S.3       1 <0>         0.1069
     23 H2          1.0042    1.8801    0.0026 H         1 <0>         0.0828
     24 H3         -0.5455    1.8639   -0.8728 H         1 <0>         0.0944
     25 H4         -0.5286    1.8543    0.9071 H         1 <0>         0.0772
     26 H5          0.0481   -2.6877    1.9451 H         1 <0>         0.2239
     27 H6          1.0362   -2.9612   -3.3183 H         1 <0>         0.0827
     28 H7         -0.5966   -2.9072   -2.5861 H         1 <0>         0.0854
     29 H8         -0.2531   -4.1464   -4.9657 H         1 <0>         0.0976
     30 H9         -1.6847   -3.0883   -4.7303 H         1 <0>         0.0874
     31 H10         0.9862   -2.4131   -6.0875 H         1 <0>         0.0874
     32 H11        -0.6759   -2.0555   -6.6608 H         1 <0>         0.1012
     33 H12         0.4868    0.7347   -7.0831 H         1 <0>         0.4256
     34 H13         5.4526    2.3586   -6.0501 H         1 <0>         0.1757
     35 H14         4.9980    3.5857   -8.3085 H         1 <0>         0.1999
@<TRIPOS>BOND
     1    1    2 1
     2    1   23 1
     3    1   24 1
     4    1   25 1
     5    2    6 1
     6    2    3 2
     7    3    4 1
     8    3    7 1
     9    4    5 1
    10    5    6 2
    11    5   26 1
    12    7    8 2
    13    7    9 am
    14    9   13 1
    15    9   10 1
    16   10   11 1
    17   10   27 1
    18   10   28 1
    19   11   12 1
    20   11   29 1
    21   11   30 1
    22   12   13 1
    23   12   31 1
    24   12   32 1
    25   13   14 1
    26   13   15 1
    27   15   16 2
    28   15   17 am
    29   17   18 1
    30   17   33 1
    31   18   22 1
    32   18   19 2
    33   19   20 1
    34   20   21 2
    35   20   34 1
    36   21   22 1
    37   21   35 1
@<TRIPOS>MOLECULE
ZINC44890973
   38    41     0     0     0
SMALL
USER_CHARGES

@<TRIPOS>ATOM
      1 C1          0.1253    1.3840    0.1355 C.3       1 <0>         0.0990
      2 N1          0.1385   -0.0767    0.0241 N.pl3     1 <0>        -0.3711
      3 C2         -0.0008   -0.7872   -1.1147 C.2       1 <0>         0.0822
      4 C3          0.0677   -2.0998   -0.7928 C.2       1 <0>        -0.2241
      5 C4          0.2552   -2.1946    0.5900 C.2       1 <0>         0.0756
      6 N2          0.3039   -0.9823    1.0799 N.2       1 <0>        -0.2903
      7 C5         -0.0400   -3.2552   -1.7542 C.3       1 <0>         0.1009
      8 H1         -0.1833   -2.8603   -2.7600 H         1 <0>         0.0994
      9 C6         -1.2356   -4.0767   -1.3860 C.2       1 <0>        -0.2377
     10 C7         -2.3330   -3.5287   -0.6881 C.2       1 <0>         0.0997
     11 N3         -3.2211   -4.4626   -0.5005 N.2       1 <0>        -0.2613
     12 N4         -2.7374   -5.6428   -1.0649 N.pl3     1 <0>        -0.3501
     13 C8         -1.5013   -5.3816   -1.6139 C.2       1 <0>         0.3369
     14 N5         -0.7849   -6.3659   -2.2510 N.am      1 <0>        -0.6298
     15 C9          0.3877   -6.4339   -2.8063 C.2       1 <0>         0.5398
     16 O1          0.7115   -7.5415   -3.1801 O.2       1 <0>        -0.5276
     17 C10         1.3899   -5.3762   -3.0554 C.3       1 <0>        -0.1264
     18 S1          1.4955   -4.1836   -1.7133 S.3       1 <0>        -0.1805
     19 C11        -3.3950   -6.8804   -1.0718 C.ar      1 <0>         0.1418
     20 C12        -4.7503   -6.9464   -1.3661 C.ar      1 <0>        -0.1026
     21 C13        -5.3955   -8.1676   -1.3726 C.ar      1 <0>        -0.0973
     22 C14        -4.6931   -9.3238   -1.0865 C.ar      1 <0>        -0.1139
     23 C15        -3.3433   -9.2613   -0.7926 C.ar      1 <0>        -0.0915
     24 C16        -2.6913   -8.0437   -0.7901 C.ar      1 <0>        -0.1413
     25 H2          1.1397    1.7663    0.0214 H         1 <0>         0.0778
     26 H3         -0.5105    1.8023   -0.6447 H         1 <0>         0.0898
     27 H4         -0.2630    1.6703    1.1130 H         1 <0>         0.0917
     28 H5         -0.1421   -0.3811   -2.1054 H         1 <0>         0.1784
     29 H6          0.3488   -3.1102    1.1551 H         1 <0>         0.1826
     30 H7         -2.4216   -2.5028   -0.3625 H         1 <0>         0.1919
     31 H8         -1.2671   -7.2063   -2.2966 H         1 <0>         0.4059
     32 H9          2.3662   -5.8422   -3.1887 H         1 <0>         0.1552
     33 H10         1.1257   -4.8516   -3.9736 H         1 <0>         0.1243
     34 H11        -5.2996   -6.0437   -1.5893 H         1 <0>         0.1355
     35 H12        -6.4498   -8.2195   -1.6011 H         1 <0>         0.1363
     36 H13        -5.1997  -10.2776   -1.0922 H         1 <0>         0.1339
     37 H14        -2.7975  -10.1659   -0.5688 H         1 <0>         0.1374
     38 H15        -1.6360   -7.9960   -0.5653 H         1 <0>         0.1295
@<TRIPOS>BOND
     1    1    2 1
     2    1   25 1
     3    1   26 1
     4    1   27 1
     5    2    6 1
     6    2    3 1
     7    3    4 2
     8    3   28 1
     9    4    5 1
    10    4    7 1
    11    5    6 2
    12    5   29 1
    13    7    8 1
    14    7   18 1
    15    7    9 1
    16    9   13 2
    17    9   10 1
    18   10   11 2
    19   10   30 1
    20   11   12 1
    21   12   13 1
    22   12   19 1
    23   13   14 1
    24   14   15 am
    25   14   31 1
    26   15   16 2
    27   15   17 1
    28   17   18 1
    29   17   32 1
    30   17   33 1
    31   19   24 ar
    32   19   20 ar
    33   20   21 ar
    34   20   34 1
    35   21   22 ar
    36   21   35 1
    37   22   23 ar
    38   22   36 1
    39   23   24 ar
    40   23   37 1
    41   24   38 1
@<TRIPOS>MOLECULE
ZINC66578494
   45    46     0     0     0
SMALL
USER_CHARGES

@<TRIPOS>ATOM
      1 C1          1.1115   -2.2611    2.3779 C.3       1 <0>        -0.1868
      2 C2          0.3411   -1.6949    1.1834 C.3       1 <0>         0.1540
      3 H1         -0.7170   -1.9365    1.2833 H         1 <0>         0.0743
      4 C3          0.8862   -2.3014   -0.1135 C.3       1 <0>        -0.1282
      5 C4          0.2088   -1.6297   -1.3102 C.3       1 <0>        -0.1190
      6 C5          0.5281   -0.1330   -1.3054 C.3       1 <0>        -0.1328
      7 C6         -0.0210    0.4981   -0.0221 C.3       1 <0>         0.1138
      8 N1          0.5108   -0.2363    1.1345 N.pl3     1 <0>        -1.0015
      9 S1          1.2902    0.5639    2.3570 S.o2      1 <0>         2.7809
     10 O1          2.2817   -0.3234    2.8558 O.2       1 <0>        -0.9614
     11 O2          1.6060    1.8570    1.8594 O.2       1 <0>        -0.9715
     12 N2          0.1925    0.7816    3.5776 N.pl3     1 <0>        -1.0083
     13 C7         -0.8880    1.7763    3.4682 C.3       1 <0>         0.1056
     14 C8         -2.2259    1.0376    3.5372 C.3       1 <0>         0.0951
     15 N3         -2.2307    0.0788    4.6335 N.am      1 <0>        -0.7149
     16 C9         -1.1352   -0.4363    5.1938 C.2       1 <0>         0.5202
     17 O3         -1.2677   -1.2873    6.0477 O.2       1 <0>        -0.5339
     18 C10         0.2533   -0.0147    4.8123 C.3       1 <0>         0.1397
     19 H2          0.8700   -0.8982    4.6469 H         1 <0>         0.1369
     20 C11         0.8547    0.8297    5.9376 C.3       1 <0>        -0.0939
     21 C12         0.9170   -0.0009    7.2210 C.3       1 <0>        -0.1539
     22 C13         2.2667    1.2699    5.5460 C.3       1 <0>        -0.1528
     23 H3          0.8275   -1.7223    3.2818 H         1 <0>         0.0556
     24 H4          0.8740   -3.3184    2.4953 H         1 <0>         0.0733
     25 H5          2.1820   -2.1460    2.2074 H         1 <0>         0.1010
     26 H6          1.9628   -2.1392   -0.1666 H         1 <0>         0.0706
     27 H7          0.6777   -3.3711   -0.1306 H         1 <0>         0.0766
     28 H8          0.5769   -2.0766   -2.2337 H         1 <0>         0.0677
     29 H9         -0.8699   -1.7712   -1.2434 H         1 <0>         0.0644
     30 H10         1.6080    0.0087   -1.3473 H         1 <0>         0.0683
     31 H11         0.0647    0.3406   -2.1709 H         1 <0>         0.0778
     32 H12         0.2888    1.5416    0.0335 H         1 <0>         0.0944
     33 H13        -1.1093    0.4374   -0.0218 H         1 <0>         0.0697
     34 H14        -0.8177    2.4877    4.2910 H         1 <0>         0.0890
     35 H15        -0.8076    2.3035    2.5175 H         1 <0>         0.1045
     36 H16        -3.0274    1.7604    3.6893 H         1 <0>         0.0927
     37 H17        -2.3932    0.5098    2.5983 H         1 <0>         0.0715
     38 H18        -3.0908   -0.2049    4.9809 H         1 <0>         0.4025
     39 H19         0.2329    1.7093    6.1039 H         1 <0>         0.0781
     40 H20        -0.0890   -0.3145    7.5000 H         1 <0>         0.0735
     41 H21         1.5388   -0.8805    7.0547 H         1 <0>         0.0617
     42 H22         1.3454    0.6007    8.0227 H         1 <0>         0.0607
     43 H23         2.2223    1.8616    4.6317 H         1 <0>         0.0443
     44 H24         2.6951    1.8715    6.3477 H         1 <0>         0.0687
     45 H25         2.8885    0.3903    5.3797 H         1 <0>         0.0717
@<TRIPOS>BOND
     1    1    2 1
     2    1   23 1
     3    1   24 1
     4    1   25 1
     5    2    3 1
     6    2    8 1
     7    2    4 1
     8    4    5 1
     9    4   26 1
    10    4   27 1
    11    5    6 1
    12    5   28 1
    13    5   29 1
    14    6    7 1
    15    6   30 1
    16    6   31 1
    17    7    8 1
    18    7   32 1
    19    7   33 1
    20    8    9 1
    21    9   10 2
    22    9   11 2
    23    9   12 1
    24   12   18 1
    25   12   13 1
    26   13   14 1
    27   13   34 1
    28   13   35 1
    29   14   15 1
    30   14   36 1
    31   14   37 1
    32   15   16 am
    33   15   38 1
    34   16   17 2
    35   16   18 1
    36   18   19 1
    37   18   20 1
    38   20   21 1
    39   20   22 1
    40   20   39 1
    41   21   40 1
    42   21   41 1
    43   21   42 1
    44   22   43 1
    45   22   44 1
    46   22   45 1
@<TRIPOS>MOLECULE
ZINC06818076
   28    31     0     0     0
SMALL
USER_CHARGES
N-[6-(2-thienyl)-2-thia-4,5,7,8-tetrazabicyclo[3.3.0]octa-3,6,8-trien-3-yl]thiophene-2-carboxamide
@<TRIPOS>ATOM
      1 C1          1.2197   -0.6481   -0.0131 C.2       1 <0>        -0.1629
      2 C2          0.0021   -0.0041    0.0020 C.2       1 <0>        -0.0902
      3 C3         -0.0165    1.3678    0.0096 C.2       1 <0>        -0.1178
      4 S1          1.7255    1.7588   -0.0050 S.3       1 <0>         0.1066
      5 C4          2.3591    0.0900   -0.0200 C.2       1 <0>        -0.1577
      6 C5         -1.1717    2.2797    0.0203 C.2       1 <0>         0.3255
      7 N1         -2.4172    1.9578   -0.2557 N.2       1 <0>        -0.2324
      8 N2         -3.1713    2.9957   -0.1472 N.2       1 <0>        -0.2139
      9 C6         -2.4523    4.0247    0.1907 C.2       1 <0>         0.0847
     10 N3         -1.1422    3.6354    0.3177 N.pl3     1 <0>        -0.3330
     11 N4         -0.2335    4.6219    0.6769 N.2       1 <0>        -0.2977
     12 C7         -0.6169    5.8539    0.8811 C.2       1 <0>         0.3432
     13 S2         -2.3741    5.7561    0.5770 S.3       1 <0>         0.2518
     14 N5          0.1457    6.9563    1.2422 N.am      1 <0>        -0.5960
     15 C8         -0.4422    8.1578    1.4067 C.2       1 <0>         0.6220
     16 O1         -1.6418    8.2764    1.2387 O.2       1 <0>        -0.4740
     17 C9          0.3627    9.3213    1.7879 C.2       1 <0>        -0.2669
     18 C10        -0.0408   10.6298    2.0053 C.2       1 <0>        -0.0367
     19 C11         0.9308   11.5331    2.3572 C.2       1 <0>        -0.1844
     20 C12         2.2175   11.1118    2.4739 C.2       1 <0>        -0.1563
     21 S3          2.1162    9.4218    2.1008 S.3       1 <0>         0.1605
     22 H1          1.2673   -1.7271   -0.0190 H         1 <0>         0.1455
     23 H2         -0.9192   -0.5676    0.0081 H         1 <0>         0.1487
     24 H3          3.3854   -0.2462   -0.0316 H         1 <0>         0.1942
     25 H4          1.1018    6.8618    1.3761 H         1 <0>         0.4339
     26 H5         -1.0745   10.9253    1.9027 H         1 <0>         0.1555
     27 H6          0.6757   12.5666    2.5395 H         1 <0>         0.1497
     28 H7          3.0909   11.6890    2.7395 H         1 <0>         0.1982
@<TRIPOS>BOND
     1    1    5 2
     2    1    2 1
     3    1   22 1
     4    2    3 2
     5    2   23 1
     6    3    4 1
     7    3    6 1
     8    4    5 1
     9    5   24 1
    10    6   10 1
    11    6    7 2
    12    7    8 1
    13    8    9 2
    14    9   13 1
    15    9   10 1
    16   10   11 1
    17   11   12 2
    18   12   13 1
    19   12   14 1
    20   14   15 am
    21   14   25 1
    22   15   16 2
    23   15   17 1
    24   17   21 1
    25   17   18 2
    26   18   19 1
    27   18   26 1
    28   19   20 2
    29   19   27 1
    30   20   21 1
    31   20   28 1
@<TRIPOS>MOLECULE
ZINC30907111
   41    45     0     0     0
SMALL
USER_CHARGES
2-indolin-1-yl-5-(4-pyridyl)-3H-pyrido[2,3-d]pyrimidin-4-one
@<TRIPOS>ATOM
      1 C1          4.8439    4.7536    0.0002 C.ar      1 <0>        -0.1328
      2 C2          5.5090    3.5409   -0.0053 C.ar      1 <0>        -0.0956
      3 C3          4.7984    2.3599   -0.0164 C.ar      1 <0>        -0.1155
      4 C4          3.4020    2.3782   -0.0109 C.ar      1 <0>         0.1488
      5 C5          2.7453    3.5984    0.0000 C.ar      1 <0>        -0.1358
      6 C6          3.4619    4.7798    0.0058 C.ar      1 <0>        -0.0828
      7 C7          1.2549    3.3426    0.0040 C.3       1 <0>        -0.0865
      8 C8          1.1253    1.8107   -0.0060 C.3       1 <0>         0.0961
      9 N1          2.5020    1.3088   -0.0148 N.pl3     1 <0>        -0.5241
     10 C9          2.8558   -0.0169   -0.0253 C.2       1 <0>         0.6667
     11 N2          1.8700   -0.9526    0.0887 N.am      1 <0>        -0.6755
     12 H1          0.8211   -0.6370    0.1900 H         1 <0>         0.4431
     13 C10         2.1755   -2.2715    0.0779 C.2       1 <0>         0.5722
     14 O1          1.3094   -3.1217    0.1736 O.2       1 <0>        -0.4897
     15 C11         3.5898   -2.6366   -0.0484 C.ar      1 <0>        -0.2741
     16 C12         4.0151   -3.9759   -0.0645 C.ar      1 <0>         0.0868
     17 C13         5.3836   -4.2200   -0.1882 C.ar      1 <0>        -0.2033
     18 C14         6.2585   -3.1516   -0.2888 C.ar      1 <0>         0.1802
     19 N3          5.8378   -1.9042   -0.2716 N.ar      1 <0>        -0.4856
     20 C15         4.5464   -1.6021   -0.1562 C.ar      1 <0>         0.4090
     21 N4          4.1246   -0.3225   -0.1390 N.2       1 <0>        -0.5662
     22 C16         3.0441   -5.0905    0.0464 C.ar      1 <0>        -0.0278
     23 C17         2.0847   -5.1088    1.0634 C.ar      1 <0>        -0.0907
     24 C18         1.1971   -6.1639    1.1272 C.ar      1 <0>         0.0911
     25 N5          1.2522   -7.1490    0.2520 N.ar      1 <0>        -0.4754
     26 C19         2.1440   -7.1726   -0.7193 C.ar      1 <0>         0.0904
     27 C20         3.0662   -6.1553   -0.8596 C.ar      1 <0>        -0.1473
     28 H2          5.4030    5.6776    0.0044 H         1 <0>         0.1281
     29 H3          6.5887    3.5193   -0.0048 H         1 <0>         0.1304
     30 H4          5.3237    1.4164   -0.0250 H         1 <0>         0.1568
     31 H5          2.9410    5.7259    0.0143 H         1 <0>         0.1268
     32 H6          0.8093    3.7855    0.9069 H         1 <0>         0.0979
     33 H7          0.8023    3.7978   -0.8893 H         1 <0>         0.0980
     34 H8          0.5812    1.4829    0.8921 H         1 <0>         0.0916
     35 H9          0.5742    1.4952   -0.9042 H         1 <0>         0.0927
     36 H10         5.7569   -5.2333   -0.2055 H         1 <0>         0.1486
     37 H11         7.3164   -3.3471   -0.3846 H         1 <0>         0.1731
     38 H12         2.0368   -4.3078    1.7861 H         1 <0>         0.1292
     39 H13         0.4503   -6.1853    1.9071 H         1 <0>         0.1563
     40 H14         2.1531   -7.9994   -1.4142 H         1 <0>         0.1584
     41 H15         3.7937   -6.1811   -1.6574 H         1 <0>         0.1365
@<TRIPOS>BOND
     1    1    6 ar
     2    1    2 ar
     3    1   28 1
     4    2    3 ar
     5    2   29 1
     6    3    4 ar
     7    3   30 1
     8    4    9 1
     9    4    5 ar
    10    5    6 ar
    11    5    7 1
    12    6   31 1
    13    7    8 1
    14    7   32 1
    15    7   33 1
    16    8    9 1
    17    8   34 1
    18    8   35 1
    19    9   10 1
    20   10   21 2
    21   10   11 1
    22   11   12 1
    23   11   13 am
    24   13   14 2
    25   13   15 1
    26   15   20 ar
    27   15   16 ar
    28   16   17 ar
    29   16   22 1
    30   17   18 ar
    31   17   36 1
    32   18   19 ar
    33   18   37 1
    34   19   20 ar
    35   20   21 1
    36   22   27 ar
    37   22   23 ar
    38   23   24 ar
    39   23   38 1
    40   24   25 ar
    41   24   39 1
    42   25   26 ar
    43   26   27 ar
    44   26   40 1
    45   27   41 1
@<TRIPOS>MOLECULE
ZINC39479912
   37    39     0     0     0
SMALL
USER_CHARGES

@<TRIPOS>ATOM
      1 C1          0.2319    1.8576   -0.1762 C.3       1 <0>        -0.1497
      2 C2          0.3031    0.3413    0.0154 C.3       1 <0>         0.0528
      3 O1          0.8490   -0.2621   -1.1593 O.3       1 <0>        -0.2889
      4 C3          0.9810   -1.6156   -1.1537 C.ar      1 <0>         0.1433
      5 C4          0.5941   -2.3753   -0.0517 C.ar      1 <0>        -0.2199
      6 C5          0.6981   -3.7588   -0.0642 C.ar      1 <0>         0.1227
      7 C6          1.0589   -4.4186   -1.2387 C.ar      1 <0>        -0.1361
      8 C7          1.3646   -3.6669   -2.3149 C.ar      1 <0>        -0.0754
      9 C8          1.4978   -2.2891   -2.2413 C.ar      1 <0>         0.1325
     10 N1          2.5429   -1.7972   -3.0161 N.pl3     1 <0>        -0.5603
     11 C9          2.7215   -0.5812   -3.6124 C.ar      1 <0>         0.4121
     12 C10         2.6983   -0.9635   -5.0403 C.ar      1 <0>        -0.0017
     13 C11         2.8315    0.0205   -5.9586 C.ar      1 <0>         0.1789
     14 N2          2.9856    1.2776   -5.5349 N.ar      1 <0>        -0.4890
     15 C12         3.0113    1.5736   -4.2497 C.ar      1 <0>         0.3113
     16 N3          2.8806    0.6483   -3.3038 N.ar      1 <0>        -0.4795
     17 Cl1         2.8032   -0.3437   -7.6558 Cl        1 <0>        -0.0144
     18 N4          2.5492   -2.3143   -5.0682 N.2       1 <0>        -0.5833
     19 C13         1.5073   -2.7822   -4.4680 C.2       1 <0>         0.4319
     20 C14         1.3787   -4.1411   -3.7919 C.3       1 <0>         0.0016
     21 O2          0.4229   -1.9795   -4.4337 O.3       1 <0>        -0.5113
     22 C15         3.6397   -2.7448   -3.2287 C.3       1 <0>         0.0891
     23 F1          0.4506   -4.4659    1.0601 F         1 <0>        -0.1293
     24 H1          1.2337    2.2489   -0.3536 H         1 <0>         0.0703
     25 H2         -0.4042    2.0863   -1.0312 H         1 <0>         0.0651
     26 H3         -0.1845    2.3179    0.7199 H         1 <0>         0.0801
     27 H4          0.9392    0.1126    0.8705 H         1 <0>         0.0641
     28 H5         -0.6987   -0.0499    0.1929 H         1 <0>         0.0634
     29 H6          0.2074   -1.8794    0.8263 H         1 <0>         0.1447
     30 H7          1.0926   -5.4971   -1.2844 H         1 <0>         0.1567
     31 H8          3.1436    2.6042   -3.9552 H         1 <0>         0.2148
     32 H9          2.2350   -4.7831   -3.9984 H         1 <0>         0.1358
     33 H10         0.4423   -4.6272   -4.0657 H         1 <0>         0.1310
     34 H11         0.5506   -1.1268   -4.8715 H         1 <0>         0.3957
     35 H12         3.2812   -3.5894   -3.8171 H         1 <0>         0.1026
     36 H13         4.4505   -2.2485   -3.7620 H         1 <0>         0.0789
     37 H14         4.0034   -3.1016   -2.2651 H         1 <0>         0.0594
@<TRIPOS>BOND
     1    1    2 1
     2    1   24 1
     3    1   25 1
     4    1   26 1
     5    2    3 1
     6    2   27 1
     7    2   28 1
     8    3    4 1
     9    4    9 ar
    10    4    5 ar
    11    5    6 ar
    12    5   29 1
    13    6    7 ar
    14    6   23 1
    15    7    8 ar
    16    7   30 1
    17    8   20 1
    18    8    9 ar
    19    9   10 1
    20   10   11 1
    21   10   22 1
    22   11   16 ar
    23   11   12 ar
    24   12   13 ar
    25   12   18 1
    26   13   14 ar
    27   13   17 1
    28   14   15 ar
    29   15   16 ar
    30   15   31 1
    31   18   19 2
    32   19   20 1
    33   19   21 1
    34   20   32 1
    35   20   33 1
    36   21   34 1
    37   22   35 1
    38   22   36 1
    39   22   37 1
@<TRIPOS>MOLECULE
ZINC43274283
   40    43     0     0     0
SMALL
USER_CHARGES

@<TRIPOS>ATOM
      1 C1         -0.0405    1.5027    0.0020 C.3       1 <0>        -0.1057
      2 C2         -0.0162   -0.0041   -0.0045 C.ar      1 <0>         0.1004
      3 C3         -0.0215   -0.6906   -1.2097 C.ar      1 <0>         0.0437
      4 N1         -0.0003   -2.0087   -1.2203 N.ar      1 <0>        -0.3747
      5 C4          0.0261   -2.6810   -0.0733 C.ar      1 <0>         0.0446
      6 C5          0.0314   -1.9882    1.1360 C.ar      1 <0>         0.1096
      7 N2          0.0154   -0.6674    1.1378 N.ar      1 <0>        -0.4450
      8 C6          0.0496   -4.1642   -0.0809 C.2       1 <0>         0.5647
      9 O1          0.0738   -4.7785    0.9710 O.2       1 <0>        -0.5772
     10 N3          0.0441   -4.8267   -1.2416 N.2       1 <0>        -0.6273
     11 C7          0.1707   -6.1488   -1.2523 C.2       1 <0>         0.6523
     12 N4          0.1950   -6.9476   -0.1515 N.pl3     1 <0>        -0.6082
     13 C8          0.3397   -8.2658   -0.5714 C.ar      1 <0>         0.0815
     14 C9          0.4223   -9.4724    0.1097 C.ar      1 <0>        -0.0989
     15 C10         0.5671  -10.6510   -0.5942 C.ar      1 <0>        -0.1000
     16 C11         0.6304  -10.6352   -1.9775 C.ar      1 <0>        -0.1030
     17 C12         0.5492   -9.4406   -2.6645 C.ar      1 <0>        -0.0922
     18 C13         0.4035   -8.2500   -1.9663 C.ar      1 <0>         0.0846
     19 N5          0.2911   -6.9216   -2.3675 N.pl3     1 <0>        -0.4406
     20 C14         0.3023   -6.4595   -3.6892 C.ar      1 <0>         0.1328
     21 C15         1.3461   -5.6611   -4.1384 C.ar      1 <0>        -0.0837
     22 C16         1.3544   -5.2072   -5.4427 C.ar      1 <0>        -0.1054
     23 C17         0.3249   -5.5470   -6.3012 C.ar      1 <0>        -0.1038
     24 C18        -0.7161   -6.3415   -5.8569 C.ar      1 <0>        -0.1081
     25 C19        -0.7274   -6.8032   -4.5553 C.ar      1 <0>        -0.1052
     26 H1          0.9810    1.8826   -0.0153 H         1 <0>         0.0875
     27 H2         -0.5765    1.8612   -0.8768 H         1 <0>         0.0842
     28 H3         -0.5437    1.8540    0.9028 H         1 <0>         0.0835
     29 H4         -0.0433   -0.1444   -2.1411 H         1 <0>         0.1755
     30 H5          0.0524   -2.5302    2.0699 H         1 <0>         0.1800
     31 H6          0.3738   -9.4890    1.1885 H         1 <0>         0.1368
     32 H7          0.6317  -11.5895   -0.0637 H         1 <0>         0.1396
     33 H8          0.7441  -11.5614   -2.5211 H         1 <0>         0.1398
     34 H9          0.5993   -9.4325   -3.7433 H         1 <0>         0.1352
     35 H10         2.1502   -5.3951   -3.4683 H         1 <0>         0.1269
     36 H11         2.1656   -4.5860   -5.7926 H         1 <0>         0.1330
     37 H12         0.3337   -5.1909   -7.3208 H         1 <0>         0.1308
     38 H13        -1.5189   -6.6048   -6.5297 H         1 <0>         0.1331
     39 H14        -1.5385   -7.4273   -4.2101 H         1 <0>         0.1276
     40 H15         0.1236   -6.6491    0.7687 H         1 <0>         0.4513
@<TRIPOS>BOND
     1    1    2 1
     2    1   26 1
     3    1   27 1
     4    1   28 1
     5    2    7 ar
     6    2    3 ar
     7    3    4 ar
     8    3   29 1
     9    4    5 ar
    10    5    6 ar
    11    5    8 1
    12    6    7 ar
    13    6   30 1
    14    8    9 2
    15    8   10 1
    16   10   11 2
    17   11   19 1
    18   11   12 1
    19   12   13 1
    20   12   40 1
    21   13   18 ar
    22   13   14 ar
    23   14   15 ar
    24   14   31 1
    25   15   16 ar
    26   15   32 1
    27   16   17 ar
    28   16   33 1
    29   17   18 ar
    30   17   34 1
    31   18   19 1
    32   19   20 1
    33   20   25 ar
    34   20   21 ar
    35   21   22 ar
    36   21   35 1
    37   22   23 ar
    38   22   36 1
    39   23   24 ar
    40   23   37 1
    41   24   25 ar
    42   24   38 1
    43   25   39 1
@<TRIPOS>MOLECULE
ZINC65096584
   47    50     0     0     0
SMALL
USER_CHARGES

@<TRIPOS>ATOM
      1 C1          3.7769   -4.7369    0.6985 C.ar      1 <0>        -0.1346
      2 C2          4.8676   -4.0933    0.1428 C.ar      1 <0>        -0.1033
      3 C3          4.8131   -2.7365   -0.1054 C.ar      1 <0>        -0.1477
      4 C4          3.6630   -2.0185    0.2023 C.ar      1 <0>         0.1488
      5 C5          2.5693   -2.6644    0.7561 C.ar      1 <0>        -0.1119
      6 C6          2.6330   -4.0256    1.0040 C.ar      1 <0>        -0.1005
      7 C7          1.3036   -1.9210    1.0923 C.3       1 <0>        -0.0804
      8 C8          1.5823   -0.4246    1.2318 C.3       1 <0>        -0.1359
      9 C9          2.3377    0.0577   -0.0134 C.3       1 <0>         0.0942
     10 N1          3.6299   -0.6405   -0.0530 N.am      1 <0>        -0.5466
     11 C10         4.7643    0.0326   -0.3297 C.2       1 <0>         0.5123
     12 O1          5.8368   -0.5284   -0.2512 O.2       1 <0>        -0.5115
     13 C11         4.7002    1.4822   -0.7365 C.3       1 <0>         0.1037
     14 N2          6.0404    1.9460   -1.1039 N.am      1 <0>        -0.7137
     15 C12         6.2266    3.2196   -1.5036 C.2       1 <0>         0.5625
     16 O2          5.2848    3.9816   -1.5593 O.2       1 <0>        -0.5070
     17 C13         7.6053    3.6967   -1.8815 C.3       1 <0>        -0.0551
     18 H1          8.3524    3.2983   -1.1951 H         1 <0>         0.1705
     19 C14         7.9306    3.3193   -3.3038 C.2       1 <0>        -0.1209
     20 C15         8.1146    4.4834   -3.9353 C.2       1 <0>        -0.0275
     21 C16         8.4664    4.5770   -5.4037 C.3       1 <0>        -0.0498
     22 C17         8.9806    3.2105   -5.8693 C.3       1 <0>        -0.1219
     23 C18         7.9933    2.1173   -5.4505 C.3       1 <0>        -0.1215
     24 C19         8.0353    1.9574   -3.9242 C.3       1 <0>        -0.0638
     25 N3          7.9400    5.5095   -3.0735 N.2       1 <0>        -0.1501
     26 N4          7.6582    5.1712   -1.9146 N.2       1 <0>        -0.1263
     27 H2          3.8181   -5.7990    0.8900 H         1 <0>         0.1233
     28 H3          5.7608   -4.6513   -0.0964 H         1 <0>         0.1257
     29 H4          5.6644   -2.2325   -0.5385 H         1 <0>         0.1641
     30 H5          1.7844   -4.5331    1.4384 H         1 <0>         0.1261
     31 H6          0.5726   -2.0783    0.2991 H         1 <0>         0.0803
     32 H7          0.9018   -2.3011    2.0315 H         1 <0>         0.0832
     33 H8          0.6397    0.1158    1.3191 H         1 <0>         0.0912
     34 H9          2.1902   -0.2476    2.1190 H         1 <0>         0.0749
     35 H10         1.7628   -0.1788   -0.9087 H         1 <0>         0.0851
     36 H11         2.5012    1.1337    0.0477 H         1 <0>         0.0966
     37 H12         4.0314    1.5906   -1.5904 H         1 <0>         0.1064
     38 H13         4.3254    2.0771    0.0963 H         1 <0>         0.1094
     39 H14         6.7937    1.3366   -1.0594 H         1 <0>         0.4149
     40 H15         7.5796    4.8489   -5.9761 H         1 <0>         0.0885
     41 H16         9.2428    5.3285   -5.5470 H         1 <0>         0.0905
     42 H17         9.0815    3.2116   -6.9547 H         1 <0>         0.0797
     43 H18         9.9522    3.0147   -5.4157 H         1 <0>         0.0695
     44 H19         6.9864    2.3980   -5.7595 H         1 <0>         0.0693
     45 H20         8.2709    1.1752   -5.9232 H         1 <0>         0.0790
     46 H21         8.9755    1.4910   -3.6299 H         1 <0>         0.0949
     47 H22         7.1996    1.3392   -3.5962 H         1 <0>         0.0853
@<TRIPOS>BOND
     1    1    6 ar
     2    1    2 ar
     3    1   27 1
     4    2    3 ar
     5    2   28 1
     6    3    4 ar
     7    3   29 1
     8    4   10 1
     9    4    5 ar
    10    5    6 ar
    11    5    7 1
    12    6   30 1
    13    7    8 1
    14    7   31 1
    15    7   32 1
    16    8    9 1
    17    8   33 1
    18    8   34 1
    19    9   10 1
    20    9   35 1
    21    9   36 1
    22   10   11 am
    23   11   12 2
    24   11   13 1
    25   13   14 1
    26   13   37 1
    27   13   38 1
    28   14   15 am
    29   14   39 1
    30   15   16 2
    31   15   17 1
    32   17   18 1
    33   17   26 1
    34   17   19 1
    35   19   24 1
    36   19   20 2
    37   20   21 1
    38   20   25 1
    39   21   22 1
    40   21   40 1
    41   21   41 1
    42   22   23 1
    43   22   42 1
    44   22   43 1
    45   23   24 1
    46   23   44 1
    47   23   45 1
    48   24   46 1
    49   24   47 1
    50   25   26 2
@<TRIPOS>MOLECULE
ZINC08558918
   47    50     0     0     0
SMALL
USER_CHARGES
2-(4,6-dimethylpyrimidin-2-yl)-3-(4-fluorophenyl)-6-methyl-3,5,6,7-tetrahydro-1H-indazol-4-one
@<TRIPOS>ATOM
      1 C1         -2.4722   -2.7348    0.0108 C.3       1 <0>        -0.1082
      2 C2         -1.1626   -1.9891    0.0029 C.ar      1 <0>         0.2285
      3 C3          0.0384   -2.6809   -0.0118 C.ar      1 <0>        -0.2843
      4 C4          1.2202   -1.9567   -0.0191 C.ar      1 <0>         0.2234
      5 N1          1.1671   -0.6350   -0.0120 N.ar      1 <0>        -0.5811
      6 C5          0.0021   -0.0041    0.0020 C.ar      1 <0>         0.5983
      7 N2         -1.1453   -0.6665    0.0144 N.ar      1 <0>        -0.5506
      8 N3         -0.0167    1.3798    0.0096 N.pl3     1 <0>        -0.4006
      9 C6         -1.2088    2.2485    0.0192 C.3       1 <0>         0.2883
     10 H1         -1.8031    2.0715    0.9156 H         1 <0>         0.0949
     11 C7         -0.6456    3.6418    0.0308 C.2       1 <0>        -0.3838
     12 C8          0.7127    3.5323    0.0106 C.2       1 <0>         0.2504
     13 N4          1.0935    2.2360    0.0036 N.pl3     1 <0>        -0.4773
     14 C9          1.6089    4.7535   -0.0077 C.3       1 <0>        -0.0673
     15 C10         0.8307    5.9022   -0.6605 C.3       1 <0>        -0.0813
     16 H2          0.6212    5.6513   -1.7003 H         1 <0>         0.0832
     17 C11        -0.4886    6.1340    0.0771 C.3       1 <0>        -0.1518
     18 C12        -1.3191    4.8699    0.0544 C.2       1 <0>         0.4267
     19 O1         -2.5335    4.9182    0.0562 O.2       1 <0>        -0.4820
     20 C13         1.6722    7.1789   -0.6071 C.3       1 <0>        -0.1495
     21 C14        -2.0375    2.0215   -1.2188 C.ar      1 <0>        -0.0847
     22 C15        -1.4172    1.8132   -2.4366 C.ar      1 <0>        -0.0723
     23 C16        -2.1762    1.6000   -3.5717 C.ar      1 <0>        -0.1579
     24 C17        -3.5584    1.6056   -3.4908 C.ar      1 <0>         0.0989
     25 C18        -4.1786    1.8196   -2.2715 C.ar      1 <0>        -0.1512
     26 C19        -3.4175    2.0273   -1.1368 C.ar      1 <0>        -0.0515
     27 F1         -4.3014    1.4021   -4.6006 F         1 <0>        -0.1412
     28 C20         2.5495   -2.6664   -0.0356 C.3       1 <0>        -0.1071
     29 H3         -2.7785   -2.9201    1.0403 H         1 <0>         0.0886
     30 H4         -3.2329   -2.1384   -0.4929 H         1 <0>         0.0844
     31 H5         -2.3522   -3.6852   -0.5092 H         1 <0>         0.0839
     32 H6          0.0530   -3.7608   -0.0177 H         1 <0>         0.1472
     33 H7          2.0160    1.9364   -0.0050 H         1 <0>         0.4407
     34 H8          1.8816    5.0258    1.0119 H         1 <0>         0.1080
     35 H9          2.5081    4.5420   -0.5863 H         1 <0>         0.0961
     36 H10        -0.2999    6.3878    1.0258 H         1 <0>         0.0891
     37 H11        -1.0404    6.9372   -0.4114 H         1 <0>         0.0954
     38 H12         2.6073    7.0205   -1.1443 H         1 <0>         0.0618
     39 H13         1.1209    7.9971   -1.0706 H         1 <0>         0.0652
     40 H14         1.8878    7.4288    0.4318 H         1 <0>         0.0613
     41 H15        -0.3391    1.8129   -2.5002 H         1 <0>         0.1163
     42 H16        -1.6913    1.4332   -4.5222 H         1 <0>         0.1303
     43 H17        -5.2567    1.8239   -2.2072 H         1 <0>         0.1363
     44 H18        -3.9011    2.1946   -0.1857 H         1 <0>         0.1337
     45 H19         2.8799   -2.8427    0.9881 H         1 <0>         0.0873
     46 H20         2.4458   -3.6200   -0.5532 H         1 <0>         0.0843
     47 H21         3.2841   -2.0499   -0.5535 H         1 <0>         0.0811
@<TRIPOS>BOND
     1    1    2 1
     2    1   29 1
     3    1   30 1
     4    1   31 1
     5    2    7 ar
     6    2    3 ar
     7    3    4 ar
     8    3   32 1
     9    4    5 ar
    10    4   28 1
    11    5    6 ar
    12    6    7 ar
    13    6    8 1
    14    8   13 1
    15    8    9 1
    16    9   10 1
    17    9   11 1
    18    9   21 1
    19   11   18 1
    20   11   12 2
    21   12   13 1
    22   12   14 1
    23   13   33 1
    24   14   15 1
    25   14   34 1
    26   14   35 1
    27   15   16 1
    28   15   17 1
    29   15   20 1
    30   17   18 1
    31   17   36 1
    32   17   37 1
    33   18   19 2
    34   20   38 1
    35   20   39 1
    36   20   40 1
    37   21   26 ar
    38   21   22 ar
    39   22   23 ar
    40   22   41 1
    41   23   24 ar
    42   23   42 1
    43   24   25 ar
    44   24   27 1
    45   25   26 ar
    46   25   43 1
    47   26   44 1
    48   28   45 1
    49   28   46 1
    50   28   47 1
@<TRIPOS>MOLECULE
ZINC36841677
   43    46     0     0     0
SMALL
USER_CHARGES

@<TRIPOS>ATOM
      1 C1         -0.0395    1.5279    0.0299 C.3       1 <0>        -0.1491
      2 C2         -0.0194   -0.0019    0.0203 C.3       1 <0>        -0.0931
      3 H1          0.4826   -0.3520   -0.8817 H         1 <0>         0.0735
      4 C3         -1.4566   -0.5299    0.0404 C.3       1 <0>        -0.1105
      5 C4         -1.4325   -2.0384   -0.2417 C.3       1 <0>        -0.0460
      6 C5         -0.3935   -2.6693    0.6377 C.2       1 <0>        -0.1836
      7 C6          0.5940   -2.0257    1.3246 C.2       1 <0>        -0.1482
      8 C7          1.4454   -2.8181    2.0800 C.2       1 <0>        -0.0451
      9 C8          1.2101   -4.1809    2.0617 C.2       1 <0>        -0.2750
     10 S1         -0.2028   -4.2926    0.9796 S.3       1 <0>         0.2126
     11 C9          1.9330   -5.2528    2.7513 C.2       1 <0>         0.6143
     12 O1          2.8868   -4.9864    3.4587 O.2       1 <0>        -0.5012
     13 N1          1.5416   -6.5339    2.6021 N.am      1 <0>        -0.6685
     14 C10         2.2848   -7.5611    3.1798 C.ar      1 <0>         0.1738
     15 C11         2.9018   -7.3618    4.4093 C.ar      1 <0>        -0.1000
     16 C12         3.6423   -8.3732    4.9925 C.ar      1 <0>        -0.0186
     17 C13         3.7705   -9.5954    4.3472 C.ar      1 <0>        -0.1576
     18 C14         3.1452   -9.8016    3.0991 C.ar      1 <0>        -0.1189
     19 C15         2.4018   -8.7868    2.5245 C.ar      1 <0>        -0.0685
     20 C16         3.4808  -11.1862    2.7033 C.2       1 <0>         0.5778
     21 O2          3.1245  -11.7381    1.6818 O.2       1 <0>        -0.4597
     22 N2          4.2475  -11.7315    3.6648 N.am      1 <0>        -0.5799
     23 C17         4.4627  -10.8589    4.6656 C.2       1 <0>         0.5766
     24 O3          5.1185  -11.0750    5.6652 O.2       1 <0>        -0.4603
     25 C18         4.7784  -13.0964    3.6269 C.3       1 <0>         0.0789
     26 C19         0.7347   -0.5079    1.2504 C.3       1 <0>        -0.0529
     27 H2          0.9831    1.9049    0.0129 H         1 <0>         0.0573
     28 H3         -0.5746    1.8898   -0.8481 H         1 <0>         0.0581
     29 H4         -0.5413    1.8791    0.9315 H         1 <0>         0.0568
     30 H5         -1.8990   -0.3483    1.0199 H         1 <0>         0.0697
     31 H6         -2.0425   -0.0239   -0.7270 H         1 <0>         0.0765
     32 H7         -2.4095   -2.4681   -0.0207 H         1 <0>         0.0865
     33 H8         -1.1810   -2.2114   -1.2881 H         1 <0>         0.0892
     34 H9          2.2539   -2.3913    2.6549 H         1 <0>         0.1487
     35 H10         0.7426   -6.7407    2.0926 H         1 <0>         0.4158
     36 H11         2.8024   -6.4111    4.9119 H         1 <0>         0.1595
     37 H12         4.1201   -8.2126    5.9477 H         1 <0>         0.1492
     38 H13         1.9179   -8.9412    1.5714 H         1 <0>         0.1480
     39 H14         5.7530  -13.0937    3.1389 H         1 <0>         0.0763
     40 H15         4.8824  -13.4741    4.6441 H         1 <0>         0.0916
     41 H16         4.0947  -13.7368    3.0697 H         1 <0>         0.0911
     42 H17         1.7889   -0.2436    1.1669 H         1 <0>         0.0768
     43 H18         0.3131   -0.0566    2.1486 H         1 <0>         0.0779
@<TRIPOS>BOND
     1    1    2 1
     2    1   27 1
     3    1   28 1
     4    1   29 1
     5    2    3 1
     6    2   26 1
     7    2    4 1
     8    4    5 1
     9    4   30 1
    10    4   31 1
    11    5    6 1
    12    5   32 1
    13    5   33 1
    14    6   10 1
    15    6    7 2
    16    7    8 1
    17    7   26 1
    18    8    9 2
    19    8   34 1
    20    9   10 1
    21    9   11 1
    22   11   12 2
    23   11   13 am
    24   13   14 1
    25   13   35 1
    26   14   19 ar
    27   14   15 ar
    28   15   16 ar
    29   15   36 1
    30   16   17 ar
    31   16   37 1
    32   17   23 1
    33   17   18 ar
    34   18   19 ar
    35   18   20 1
    36   19   38 1
    37   20   21 2
    38   20   22 am
    39   22   23 am
    40   22   25 1
    41   23   24 2
    42   25   39 1
    43   25   40 1
    44   25   41 1
    45   26   42 1
    46   26   43 1
@<TRIPOS>MOLECULE
ZINC50108066
   40    42     0     0     0
SMALL
USER_CHARGES

@<TRIPOS>ATOM
      1 C1          1.6542    1.0547    0.6396 C.3       1 <0>         0.0259
      2 O1          1.1144   -0.2503    0.4211 O.3       1 <0>        -0.3156
      3 C2          1.1573   -0.7308   -0.8487 C.ar      1 <0>         0.1265
      4 C3          1.7134    0.0380   -1.8615 C.ar      1 <0>        -0.1878
      5 C4          1.7595   -0.4446   -3.1517 C.ar      1 <0>        -0.0481
      6 C5          1.2455   -1.7109   -3.4434 C.ar      1 <0>        -0.0433
      7 C6          0.6854   -2.4859   -2.4247 C.ar      1 <0>        -0.0495
      8 C7          0.6473   -1.9982   -1.1309 C.ar      1 <0>         0.1427
      9 N1          0.0913   -2.7748   -0.1048 N.am      1 <0>        -0.6717
     10 C8          0.0538   -4.1171   -0.2204 C.2       1 <0>         0.7241
     11 O2          0.5927   -4.6613   -1.1648 O.2       1 <0>        -0.5575
     12 N2         -0.5811   -4.8561    0.7108 N.am      1 <0>        -0.6279
     13 C9         -1.2786   -4.3285    1.8976 C.3       1 <0>         0.0918
     14 C10        -2.3142   -5.4198    2.2668 C.3       1 <0>        -0.1299
     15 C11        -1.5257   -6.7177    1.9488 C.3       1 <0>        -0.1246
     16 C12        -0.6982   -6.3217    0.7080 C.3       1 <0>         0.2415
     17 H1         -1.2054   -6.6513   -0.1988 H         1 <0>         0.1002
     18 C13         0.6713   -6.9454    0.7882 C.2       1 <0>        -0.1457
     19 C14         1.1459   -8.0470    0.1568 C.2       1 <0>        -0.1457
     20 C15         2.4519   -8.4390    0.3833 C.2       1 <0>        -0.1537
     21 C16         3.2194   -7.7103    1.2302 C.2       1 <0>        -0.1766
     22 S1          2.0920   -6.4208    1.7335 S.3       1 <0>         0.0439
     23 C17         1.2924   -2.2131   -4.7837 C.1       1 <0>         0.2584
     24 N3          1.3297   -2.6114   -5.8469 N.1       1 <0>        -0.4161
     25 H2          2.7072    1.0641    0.3582 H         1 <0>         0.0607
     26 H3          1.1097    1.7791    0.0338 H         1 <0>         0.0608
     27 H4          1.5573    1.3162    1.6933 H         1 <0>         0.1041
     28 H5          2.1108    1.0171   -1.6381 H         1 <0>         0.1445
     29 H6          2.1926    0.1563   -3.9377 H         1 <0>         0.1383
     30 H7          0.2867   -3.4649   -2.6461 H         1 <0>         0.1641
     31 H8         -0.2664   -2.3461    0.6884 H         1 <0>         0.4130
     32 H9         -0.5748   -4.1807    2.7168 H         1 <0>         0.0740
     33 H10        -1.7831   -3.3928    1.6563 H         1 <0>         0.0791
     34 H11        -2.5744   -5.3698    3.3241 H         1 <0>         0.0915
     35 H12        -3.2044   -5.3406    1.6428 H         1 <0>         0.0824
     36 H13        -0.8752   -6.9873    2.7808 H         1 <0>         0.0847
     37 H14        -2.2073   -7.5343    1.7104 H         1 <0>         0.0929
     38 H15         0.5130   -8.6101   -0.5130 H         1 <0>         0.1316
     39 H16         2.8546   -9.3130   -0.1069 H         1 <0>         0.1330
     40 H17         4.2475   -7.8668    1.5217 H         1 <0>         0.1841
@<TRIPOS>BOND
     1    1    2 1
     2    1   25 1
     3    1   26 1
     4    1   27 1
     5    2    3 1
     6    3    8 ar
     7    3    4 ar
     8    4    5 ar
     9    4   28 1
    10    5    6 ar
    11    5   29 1
    12    6    7 ar
    13    6   23 1
    14    7    8 ar
    15    7   30 1
    16    8    9 1
    17    9   10 am
    18    9   31 1
    19   10   11 2
    20   10   12 am
    21   12   16 1
    22   12   13 1
    23   13   14 1
    24   13   32 1
    25   13   33 1
    26   14   15 1
    27   14   34 1
    28   14   35 1
    29   15   16 1
    30   15   36 1
    31   15   37 1
    32   16   17 1
    33   16   18 1
    34   18   22 1
    35   18   19 2
    36   19   20 1
    37   19   38 1
    38   20   21 2
    39   20   39 1
    40   21   22 1
    41   21   40 1
    42   23   24 3
@<TRIPOS>MOLECULE
ZINC08188436
   42    45     0     0     0
SMALL
USER_CHARGES

@<TRIPOS>ATOM
      1 C1          0.0092    1.4984   -0.0304 C.3       1 <0>        -0.1216
      2 C2          0.0274   -0.0085   -0.0333 C.ar      1 <0>        -0.0584
      3 C3          0.0394   -0.6948   -1.2347 C.ar      1 <0>        -0.1243
      4 C4          0.0561   -2.0742   -1.2444 C.ar      1 <0>        -0.0584
      5 C5          0.0609   -2.7775   -0.0387 C.ar      1 <0>        -0.0397
      6 C6          0.0488   -2.0790    1.1697 C.ar      1 <0>        -0.0772
      7 C7          0.0378   -0.6994    1.1653 C.ar      1 <0>        -0.1243
      8 C8          0.0783   -4.2555   -0.0416 C.2       1 <0>         0.2924
      9 N1          0.0958   -5.0033   -1.1152 N.2       1 <0>        -0.4646
     10 C9          0.1080   -6.3081   -0.7388 C.ar      1 <0>         0.0153
     11 C10         0.1275   -7.5145   -1.4442 C.ar      1 <0>        -0.0393
     12 C11         0.1355   -8.7000   -0.7665 C.ar      1 <0>        -0.1170
     13 C12         0.1239   -8.7183    0.6266 C.ar      1 <0>         0.1777
     14 C13         0.1041   -7.5315    1.3421 C.ar      1 <0>        -0.1234
     15 C14         0.0967   -6.3222    0.6660 C.ar      1 <0>         0.0300
     16 O1          0.0842   -5.0297    1.0606 O.3       1 <0>        -0.2074
     17 N2          0.1318   -9.9413    1.3069 N.am      1 <0>        -0.6685
     18 C15        -0.5239  -11.0016    0.7948 C.2       1 <0>         0.5141
     19 O2         -1.0506  -10.9204   -0.2948 O.2       1 <0>        -0.4906
     20 C16        -0.6027  -12.2880    1.5759 C.3       1 <0>         0.0674
     21 H1          0.3979  -12.6363    1.8319 H         1 <0>         0.1043
     22 C17        -1.4471  -12.0869    2.8594 C.3       1 <0>        -0.1479
     23 C18        -1.9304  -13.5388    3.1247 C.3       1 <0>        -0.1539
     24 C19        -2.1012  -14.0938    1.6943 C.3       1 <0>         0.0467
     25 O3         -1.3005  -13.2893    0.8183 O.3       1 <0>        -0.3525
     26 H2          1.0324    1.8741   -0.0315 H         1 <0>         0.0767
     27 H3         -0.5105    1.8572   -0.9188 H         1 <0>         0.0714
     28 H4         -0.5074    1.8538    0.8611 H         1 <0>         0.0707
     29 H5          0.0353   -0.1494   -2.1668 H         1 <0>         0.1343
     30 H6          0.0651   -2.6087   -2.1828 H         1 <0>         0.1408
     31 H7          0.0520   -2.6172    2.1060 H         1 <0>         0.1328
     32 H8          0.0332   -0.1577    2.0996 H         1 <0>         0.1326
     33 H9          0.1359   -7.5091   -2.5241 H         1 <0>         0.1433
     34 H10         0.1505   -9.6305   -1.3145 H         1 <0>         0.1548
     35 H11         0.0944   -7.5492    2.4219 H         1 <0>         0.1408
     36 H12         0.6092  -10.0259    2.1471 H         1 <0>         0.4149
     37 H13        -0.8315  -11.7214    3.6813 H         1 <0>         0.0952
     38 H14        -2.2894  -11.4200    2.6751 H         1 <0>         0.0862
     39 H15        -1.1769  -14.1044    3.6729 H         1 <0>         0.0838
     40 H16        -2.8814  -13.5398    3.6573 H         1 <0>         0.0896
     41 H17        -1.7621  -15.1290    1.6564 H         1 <0>         0.0774
     42 H18        -3.1484  -14.0355    1.3976 H         1 <0>         0.0756
@<TRIPOS>BOND
     1    1    2 1
     2    1   26 1
     3    1   27 1
     4    1   28 1
     5    2    7 ar
     6    2    3 ar
     7    3    4 ar
     8    3   29 1
     9    4    5 ar
    10    4   30 1
    11    5    6 ar
    12    5    8 1
    13    6    7 ar
    14    6   31 1
    15    7   32 1
    16    8   16 1
    17    8    9 2
    18    9   10 1
    19   10   15 ar
    20   10   11 ar
    21   11   12 ar
    22   11   33 1
    23   12   13 ar
    24   12   34 1
    25   13   14 ar
    26   13   17 1
    27   14   15 ar
    28   14   35 1
    29   15   16 1
    30   17   18 am
    31   17   36 1
    32   18   19 2
    33   18   20 1
    34   20   21 1
    35   20   25 1
    36   20   22 1
    37   22   23 1
    38   22   37 1
    39   22   38 1
    40   23   24 1
    41   23   39 1
    42   23   40 1
    43   24   25 1
    44   24   41 1
    45   24   42 1
@<TRIPOS>MOLECULE
ZINC66803370
   46    49     0     0     0
SMALL
USER_CHARGES

@<TRIPOS>ATOM
      1 C1          0.0662    1.1280   -0.3840 C.ar      1 <0>        -0.0912
      2 C2          1.1976    1.9129   -0.3319 C.ar      1 <0>        -0.1181
      3 C3          2.4352    1.3348   -0.0734 C.ar      1 <0>         0.1624
      4 C4          2.5355   -0.0362    0.1336 C.ar      1 <0>        -0.1424
      5 C5          1.4077   -0.8265    0.0832 C.ar      1 <0>        -0.0519
      6 C6          0.1636   -0.2490   -0.1765 C.ar      1 <0>        -0.0337
      7 C7         -1.0485   -1.0941   -0.2313 C.2       1 <0>         0.2237
      8 N1         -1.1765   -2.3177    0.2419 N.2       1 <0>        -0.2829
      9 N2         -2.3704   -2.7487    0.0199 N.2       1 <0>        -0.2871
     10 C8         -3.0614   -1.8383   -0.5974 C.2       1 <0>         0.1831
     11 N3         -2.2491   -0.7571   -0.7746 N.pl3     1 <0>        -0.4713
     12 C9         -2.6463    0.4877   -1.4305 C.3       1 <0>         0.0981
     13 C10        -3.9263    0.2326   -2.2351 C.3       1 <0>        -0.1373
     14 C11        -4.9624   -0.4612   -1.3463 C.3       1 <0>        -0.1275
     15 C12        -4.4973   -1.8966   -1.0554 C.3       1 <0>        -0.0349
     16 N4          3.5809    2.1335   -0.0221 N.am      1 <0>        -0.6744
     17 C13         3.5031    3.3941    0.4483 C.2       1 <0>         0.5192
     18 O1          2.4609    3.8045    0.9135 O.2       1 <0>        -0.5123
     19 C14         4.7110    4.2937    0.3961 C.3       1 <0>        -0.1064
     20 H1          5.5235    3.8499    0.9713 H         1 <0>         0.1044
     21 C15         4.3565    5.6673    0.9796 C.3       1 <0>        -0.1006
     22 C16         5.6387    6.4967    1.0786 C.3       1 <0>        -0.0951
     23 C17         6.3836    6.4541   -0.2234 C.2       1 <0>        -0.1496
     24 C18         6.1734    5.5759   -1.1509 C.2       1 <0>        -0.1599
     25 C19         5.1515    4.4795   -1.0576 C.3       1 <0>        -0.0805
     26 H2         -0.8955    1.5783   -0.5808 H         1 <0>         0.1280
     27 H3          1.1229    2.9783   -0.4923 H         1 <0>         0.1404
     28 H4          3.4984   -0.4825    0.3339 H         1 <0>         0.1357
     29 H5          1.4863   -1.8916    0.2438 H         1 <0>         0.1422
     30 H6         -2.8339    1.2538   -0.6781 H         1 <0>         0.0927
     31 H7         -1.8525    0.8171   -2.1009 H         1 <0>         0.0991
     32 H8         -4.3286    1.1823   -2.5879 H         1 <0>         0.0957
     33 H9         -3.6969   -0.4038   -3.0898 H         1 <0>         0.0789
     34 H10        -5.0662    0.0890   -0.4112 H         1 <0>         0.0733
     35 H11        -5.9228   -0.4889   -1.8610 H         1 <0>         0.0888
     36 H12        -4.5721   -2.5070   -1.9554 H         1 <0>         0.0980
     37 H13        -5.1178   -2.3237   -0.2676 H         1 <0>         0.1020
     38 H14         4.4322    1.7805   -0.3249 H         1 <0>         0.4137
     39 H15         3.6442    6.1705    0.3257 H         1 <0>         0.0724
     40 H16         3.9230    5.5430    1.9719 H         1 <0>         0.0774
     41 H17         5.3835    7.5296    1.3152 H         1 <0>         0.0787
     42 H18         6.2703    6.0924    1.8697 H         1 <0>         0.0769
     43 H19         7.1422    7.2028   -0.3975 H         1 <0>         0.1065
     44 H20         6.7730    5.6327   -2.0473 H         1 <0>         0.1087
     45 H21         5.5808    3.5482   -1.4269 H         1 <0>         0.0780
     46 H22         4.2866    4.7427   -1.6664 H         1 <0>         0.0791
@<TRIPOS>BOND
     1    1    6 ar
     2    1    2 ar
     3    1   26 1
     4    2    3 ar
     5    2   27 1
     6    3    4 ar
     7    3   16 1
     8    4    5 ar
     9    4   28 1
    10    5    6 ar
    11    5   29 1
    12    6    7 1
    13    7   11 1
    14    7    8 2
    15    8    9 1
    16    9   10 2
    17   10   15 1
    18   10   11 1
    19   11   12 1
    20   12   13 1
    21   12   30 1
    22   12   31 1
    23   13   14 1
    24   13   32 1
    25   13   33 1
    26   14   15 1
    27   14   34 1
    28   14   35 1
    29   15   36 1
    30   15   37 1
    31   16   17 am
    32   16   38 1
    33   17   18 2
    34   17   19 1
    35   19   20 1
    36   19   25 1
    37   19   21 1
    38   21   22 1
    39   21   39 1
    40   21   40 1
    41   22   23 1
    42   22   41 1
    43   22   42 1
    44   23   24 2
    45   23   43 1
    46   24   25 1
    47   24   44 1
    48   25   45 1
    49   25   46 1
@<TRIPOS>MOLECULE
ZINC09296171
   53    56     0     0     0
SMALL
USER_CHARGES
2-amino-4-[3-chloro-5-ethoxy-4-[(2-fluorophenyl)methoxy]phenyl]-7-hydroxy-4H-chromene-3-carbonitrile
@<TRIPOS>ATOM
      1 C1          1.8296    8.2150   -2.3013 C.3       1 <0>        -0.1526
      2 C2          1.7139    6.7460   -1.8896 C.3       1 <0>         0.0508
      3 O1          1.8660    5.9149   -3.0420 O.3       1 <0>        -0.2987
      4 C3          1.7889    4.5710   -2.8486 C.ar      1 <0>         0.1359
      5 C4          1.5716    4.0638   -1.5772 C.ar      1 <0>        -0.1883
      6 C5          1.4930    2.6976   -1.3818 C.ar      1 <0>        -0.0244
      7 C6          1.6363    1.8336   -2.4515 C.ar      1 <0>        -0.1204
      8 C7          1.8477    2.3332   -3.7241 C.ar      1 <0>        -0.0117
      9 C8          1.9275    3.7026   -3.9265 C.ar      1 <0>         0.0678
     10 O2          2.1413    4.1958   -5.1760 O.3       1 <0>        -0.3068
     11 C9          3.5003    4.3865   -5.5744 C.3       1 <0>         0.1118
     12 C10         3.5402    4.9350   -6.9775 C.ar      1 <0>        -0.1198
     13 C11         2.3625    5.1660   -7.6632 C.ar      1 <0>        -0.0665
     14 C12         2.3986    5.6745   -8.9480 C.ar      1 <0>        -0.1293
     15 C13         3.6129    5.9420   -9.5529 C.ar      1 <0>        -0.0908
     16 C14         4.7916    5.7066   -8.8714 C.ar      1 <0>        -0.1526
     17 C15         4.7565    5.2025   -7.5821 C.ar      1 <0>         0.1022
     18 F1          5.9083    4.9715   -6.9150 F         1 <0>        -0.1381
     19 Cl1         2.0196    1.2457   -5.0663 Cl        1 <0>        -0.0437
     20 C16         1.2567    2.1485    0.0016 C.3       1 <0>         0.0874
     21 H1          1.1683    2.9758    0.7058 H         1 <0>         0.1038
     22 C17         2.4197    1.2782    0.3978 C.ar      1 <0>        -0.1324
     23 C18         3.6075    1.8682    0.7924 C.ar      1 <0>        -0.0594
     24 C19         4.6848    1.0861    1.1591 C.ar      1 <0>        -0.1509
     25 C20         4.5782   -0.2976    1.1328 C.ar      1 <0>         0.1420
     26 C21         3.3903   -0.8913    0.7388 C.ar      1 <0>        -0.1507
     27 C22         2.3075   -0.1031    0.3707 C.ar      1 <0>         0.1351
     28 O3          1.1514   -0.6995   -0.0120 O.3       1 <0>        -0.2430
     29 C23         0.0021   -0.0041    0.0020 C.2       1 <0>         0.4472
     30 C24        -0.0163    1.3499    0.0095 C.2       1 <0>        -0.2833
     31 C25        -1.2740    2.0345    0.0191 C.1       1 <0>         0.2710
     32 N1         -2.2717    2.5776    0.0267 N.1       1 <0>        -0.4409
     33 N2         -1.1890   -0.6863    0.0094 N.pl3     1 <0>        -0.8275
     34 O4          5.6375   -1.0687    1.4934 O.3       1 <0>        -0.4921
     35 H2          1.7136    8.8489   -1.4222 H         1 <0>         0.0808
     36 H3          2.8075    8.3908   -2.7495 H         1 <0>         0.0671
     37 H4          1.0501    8.4518   -3.0255 H         1 <0>         0.0682
     38 H5          0.7360    6.5702   -1.4413 H         1 <0>         0.0650
     39 H6          2.4934    6.5092   -1.1654 H         1 <0>         0.0647
     40 H7          1.4641    4.7361   -0.7389 H         1 <0>         0.1404
     41 H8          1.5786    0.7667   -2.2941 H         1 <0>         0.1344
     42 H9          3.9827    5.0897   -4.8955 H         1 <0>         0.0718
     43 H10         4.0257    3.4320   -5.5424 H         1 <0>         0.0703
     44 H11         1.4136    4.9532   -7.1934 H         1 <0>         0.1423
     45 H12         1.4778    5.8589   -9.4814 H         1 <0>         0.1314
     46 H13         3.6400    6.3348  -10.5586 H         1 <0>         0.1336
     47 H14         5.7399    5.9153   -9.3443 H         1 <0>         0.1375
     48 H15         3.6925    2.9446    0.8131 H         1 <0>         0.1389
     49 H16         5.6099    1.5508    1.4666 H         1 <0>         0.1394
     50 H17         3.3060   -1.9678    0.7181 H         1 <0>         0.1455
     51 H18        -2.0273   -0.1984    0.0198 H         1 <0>         0.4267
     52 H19        -1.1924   -1.6563    0.0042 H         1 <0>         0.4129
     53 H20         6.2249   -1.2978    0.7603 H         1 <0>         0.3983
@<TRIPOS>BOND
     1    1    2 1
     2    1   35 1
     3    1   36 1
     4    1   37 1
     5    2    3 1
     6    2   38 1
     7    2   39 1
     8    3    4 1
     9    4    9 ar
    10    4    5 ar
    11    5    6 ar
    12    5   40 1
    13    6    7 ar
    14    6   20 1
    15    7    8 ar
    16    7   41 1
    17    8    9 ar
    18    8   19 1
    19    9   10 1
    20   10   11 1
    21   11   12 1
    22   11   42 1
    23   11   43 1
    24   12   17 ar
    25   12   13 ar
    26   13   14 ar
    27   13   44 1
    28   14   15 ar
    29   14   45 1
    30   15   16 ar
    31   15   46 1
    32   16   17 ar
    33   16   47 1
    34   17   18 1
    35   20   21 1
    36   20   30 1
    37   20   22 1
    38   22   27 ar
    39   22   23 ar
    40   23   24 ar
    41   23   48 1
    42   24   25 ar
    43   24   49 1
    44   25   26 ar
    45   25   34 1
    46   26   27 ar
    47   26   50 1
    48   27   28 1
    49   28   29 1
    50   29   30 2
    51   29   33 1
    52   30   31 1
    53   31   32 3
    54   33   51 1
    55   33   52 1
    56   34   53 1
@<TRIPOS>MOLECULE
ZINC20693783
   62    66     0     0     0
SMALL
USER_CHARGES
(3aR,4S,9bR)-N-(3,4-dimethylphenyl)-4-(2-hydroxy-3-methoxy-phenyl)-3a,4,5,9b-tetrahydro-3H-cyclopenta[c]quinoline-8-sulfonamide
@<TRIPOS>ATOM
      1 C1          1.2497    1.4531    2.2577 C.3       1 <0>        -0.1150
      2 C2         -0.2328    1.7181    2.2011 C.ar      1 <0>        -0.0969
      3 C3         -0.9012    2.1447    3.3344 C.ar      1 <0>        -0.0932
      4 C4         -2.2594    2.3883    3.2861 C.ar      1 <0>        -0.1573
      5 C5         -2.9547    2.2046    2.0974 C.ar      1 <0>         0.1514
      6 C6         -2.2793    1.7820    0.9597 C.ar      1 <0>        -0.1280
      7 C7         -0.9216    1.5346    1.0164 C.ar      1 <0>        -0.0700
      8 C8         -0.1890    1.0702   -0.2159 C.3       1 <0>        -0.1156
      9 N1         -4.3287    2.4501    2.0450 N.pl3     1 <0>        -1.0723
     10 S1         -4.9524    3.8182    2.7390 S.o2      1 <0>         2.6950
     11 O1         -6.3525    3.7941    2.4975 O.2       1 <0>        -0.9592
     12 O2         -4.4064    3.8943    4.0487 O.2       1 <0>        -0.9563
     13 C9         -4.3109    5.1946    1.8452 C.ar      1 <0>        -0.7283
     14 C10        -4.9948    5.6868    0.7484 C.ar      1 <0>         0.0253
     15 C11        -4.4994    6.7695    0.0515 C.ar      1 <0>        -0.2169
     16 C12        -3.3114    7.3736    0.4452 C.ar      1 <0>         0.2757
     17 C13        -2.6169    6.8607    1.5466 C.ar      1 <0>        -0.1646
     18 C14        -3.1266    5.7866    2.2436 C.ar      1 <0>         0.0307
     19 C15        -1.3341    7.5032    1.9034 C.3       1 <0>        -0.0163
     20 H1         -0.6594    6.8511    1.3293 H         1 <0>         0.1028
     21 C16        -0.7885    7.4596    3.2841 C.2       1 <0>        -0.1700
     22 C17        -0.0889    8.5675    3.4983 C.2       1 <0>        -0.1786
     23 C18        -0.1438    9.4682    2.2628 C.3       1 <0>        -0.0791
     24 C19        -1.4661    9.0293    1.6190 C.3       1 <0>        -0.0753
     25 H2         -2.3099    9.6337    1.9833 H         1 <0>         0.1039
     26 C20        -1.5741    9.1521    0.1096 C.3       1 <0>         0.2074
     27 H3         -1.5693   10.1984   -0.2299 H         1 <0>         0.1081
     28 N2         -2.8467    8.4929   -0.2556 N.pl3     1 <0>        -0.7417
     29 C21        -0.4163    8.4516   -0.5535 C.ar      1 <0>        -0.1132
     30 C22        -0.5396    7.1311   -0.9452 C.ar      1 <0>        -0.0996
     31 C23         0.5183    6.4874   -1.5588 C.ar      1 <0>        -0.1233
     32 C24         1.7088    7.1575   -1.7735 C.ar      1 <0>        -0.1663
     33 C25         1.8409    8.4787   -1.3785 C.ar      1 <0>         0.0346
     34 C26         0.7734    9.1287   -0.7656 C.ar      1 <0>         0.1468
     35 O3          0.8981   10.4257   -0.3764 O.3       1 <0>        -0.5024
     36 O4          3.0110    9.1390   -1.5885 O.3       1 <0>        -0.3264
     37 C27         4.0632    8.4089   -2.2226 C.3       1 <0>         0.0302
     38 H4          1.6192    1.6524    3.2744 H         1 <0>         0.0651
     39 H5          1.7672    2.1109    1.5439 H         1 <0>         0.0683
     40 H6          1.4446    0.4026    1.9961 H         1 <0>         0.0693
     41 H7         -0.3601    2.2870    4.2582 H         1 <0>         0.1275
     42 H8         -2.7808    2.7211    4.1714 H         1 <0>         0.1559
     43 H9         -2.8160    1.6427    0.0328 H         1 <0>         0.1260
     44 H10        -0.8977    0.9826   -1.0526 H         1 <0>         0.0644
     45 H11         0.2715    0.0904   -0.0212 H         1 <0>         0.0713
     46 H12         0.5940    1.7987   -0.4733 H         1 <0>         0.0700
     47 H13        -4.9965    1.7347    1.5428 H         1 <0>         0.4510
     48 H14        -5.9186    5.2222    0.4366 H         1 <0>         0.1361
     49 H15        -5.0377    7.1497   -0.8042 H         1 <0>         0.1296
     50 H16        -2.5964    5.4030    3.1028 H         1 <0>         0.1342
     51 H17        -0.8780    6.7035    4.0780 H         1 <0>         0.1325
     52 H18         0.4200    8.7190    4.4617 H         1 <0>         0.1295
     53 H19        -0.1429   10.5223    2.5772 H         1 <0>         0.0722
     54 H20         0.7335    9.2741    1.6282 H         1 <0>         0.0867
     55 H21        -3.4470    8.8810   -1.0916 H         1 <0>         0.4266
     56 H22        -1.4661    6.6029   -0.7749 H         1 <0>         0.1285
     57 H23         0.4166    5.4574   -1.8673 H         1 <0>         0.1241
     58 H24         2.5353    6.6510   -2.2495 H         1 <0>         0.1286
     59 H25         1.8434   10.9622   -0.5454 H         1 <0>         0.4398
     60 H26         4.9456    9.0567   -2.3306 H         1 <0>         0.1039
     61 H27         3.7302    8.0743   -3.2161 H         1 <0>         0.0563
     62 H28         4.3236    7.5338   -1.6091 H         1 <0>         0.0566
@<TRIPOS>BOND
     1    1    2 1
     2    1   38 1
     3    1   39 1
     4    1   40 1
     5    2    7 ar
     6    2    3 ar
     7    3    4 ar
     8    3   41 1
     9    4    5 ar
    10    4   42 1
    11    5    6 ar
    12    5    9 1
    13    6    7 ar
    14    6   43 1
    15    7    8 1
    16    8   44 1
    17    8   45 1
    18    8   46 1
    19    9   10 1
    20    9   47 1
    21   10   11 2
    22   10   12 2
    23   10   13 1
    24   13   18 ar
    25   13   14 ar
    26   14   15 ar
    27   14   48 1
    28   15   16 ar
    29   15   49 1
    30   16   28 1
    31   16   17 ar
    32   17   18 ar
    33   17   19 1
    34   18   50 1
    35   19   20 1
    36   19   24 1
    37   19   21 1
    38   21   22 2
    39   21   51 1
    40   22   23 1
    41   22   52 1
    42   23   24 1
    43   23   53 1
    44   23   54 1
    45   24   25 1
    46   24   26 1
    47   26   27 1
    48   26   28 1
    49   26   29 1
    50   28   55 1
    51   29   34 ar
    52   29   30 ar
    53   30   31 ar
    54   30   56 1
    55   31   32 ar
    56   31   57 1
    57   32   33 ar
    58   32   58 1
    59   33   34 ar
    60   33   36 1
    61   34   35 1
    62   35   59 1
    63   36   37 1
    64   37   60 1
    65   37   61 1
    66   37   62 1
@<TRIPOS>MOLECULE
ZINC35578479
   53    57     0     0     0
SMALL
USER_CHARGES

@<TRIPOS>ATOM
      1 C1         -0.1746    1.2186   -0.8199 C.ar      1 <0>        -0.0921
      2 C2          0.9105    1.8451   -1.4055 C.ar      1 <0>        -0.1077
      3 C3          2.0843    1.1463   -1.6185 C.ar      1 <0>        -0.0917
      4 C4          2.1766   -0.1818   -1.2464 C.ar      1 <0>        -0.0346
      5 C5          1.0878   -0.8137   -0.6578 C.ar      1 <0>         0.1512
      6 C6         -0.0893   -0.1080   -0.4456 C.ar      1 <0>        -0.1443
      7 N1          1.1772   -2.1592   -0.2798 N.pl3     1 <0>        -0.2883
      8 C7          0.1452   -2.9137    0.1459 C.2       1 <0>         0.4312
      9 C8          0.6403   -4.1826    0.4203 C.ar      1 <0>        -0.3616
     10 C9          0.0984   -5.4018    0.8858 C.ar      1 <0>         0.3749
     11 N2          0.9146   -6.4385    1.0289 N.ar      1 <0>        -0.5785
     12 C10         2.2121   -6.3610    0.7494 C.ar      1 <0>         0.6135
     13 N3          2.7990   -5.2658    0.3118 N.ar      1 <0>        -0.5687
     14 C11         2.0836   -4.1404    0.1223 C.ar      1 <0>         0.3538
     15 N4          2.3506   -2.9217   -0.2938 N.2       1 <0>        -0.2787
     16 N5          2.9882   -7.4920    0.9281 N.pl3     1 <0>        -0.6862
     17 C12         4.4223   -7.4505    0.6321 C.3       1 <0>         0.1618
     18 C13         5.1793   -6.9173    1.8502 C.3       1 <0>        -0.1269
     19 C14         6.6771   -6.8740    1.5411 C.3       1 <0>        -0.1162
     20 C15         7.1707   -8.2841    1.2110 C.3       1 <0>        -0.1224
     21 C16         6.4138   -8.8173   -0.0071 C.3       1 <0>        -0.1147
     22 C17         4.9159   -8.8606    0.3021 C.3       1 <0>        -0.1277
     23 C18        -1.3416   -5.5194    1.2058 C.ar      1 <0>        -0.0612
     24 C19        -2.2985   -5.0208    0.3205 C.ar      1 <0>        -0.0512
     25 C20        -3.6391   -5.1330    0.6225 C.ar      1 <0>        -0.1461
     26 C21        -4.0379   -5.7393    1.8034 C.ar      1 <0>         0.1300
     27 C22        -3.0913   -6.2362    2.6872 C.ar      1 <0>        -0.0805
     28 C23        -1.7472   -6.1342    2.3909 C.ar      1 <0>        -0.0333
     29 Cl1        -3.5982   -6.9938    4.1646 Cl        1 <0>        -0.0379
     30 F1         -5.3527   -5.8463    2.0948 F         1 <0>        -0.1202
     31 N6         -1.1666   -2.5006    0.2847 N.pl3     1 <0>        -0.8555
     32 Cl2         3.6504   -1.0592   -1.5145 Cl        1 <0>        -0.0135
     33 H1         -1.0884    1.7689   -0.6509 H         1 <0>         0.1418
     34 H2          0.8407    2.8826   -1.6974 H         1 <0>         0.1407
     35 H3          2.9297    1.6383   -2.0764 H         1 <0>         0.1450
     36 H4         -0.9371   -0.5961    0.0119 H         1 <0>         0.1540
     37 H5          2.5828   -8.3125    1.2495 H         1 <0>         0.4128
     38 H6          4.5985   -6.7950   -0.2207 H         1 <0>         0.0950
     39 H7          4.8276   -5.9127    2.0853 H         1 <0>         0.0685
     40 H8          5.0031   -7.5729    2.7030 H         1 <0>         0.0601
     41 H9          6.8533   -6.2185    0.6882 H         1 <0>         0.0653
     42 H10         7.2163   -6.4941    2.4088 H         1 <0>         0.0633
     43 H11         8.2378   -8.2532    0.9907 H         1 <0>         0.0634
     44 H12         6.9945   -8.9396    2.0638 H         1 <0>         0.0620
     45 H13         6.5899   -8.1618   -0.8599 H         1 <0>         0.0657
     46 H14         6.7654   -9.8219   -0.2422 H         1 <0>         0.0670
     47 H15         4.7398   -9.5161    1.1549 H         1 <0>         0.0677
     48 H16         4.3767   -9.2405   -0.5657 H         1 <0>         0.0685
     49 H17        -1.9893   -4.5475   -0.5997 H         1 <0>         0.1462
     50 H18        -4.3800   -4.7473   -0.0622 H         1 <0>         0.1534
     51 H19        -1.0107   -6.5252    3.0772 H         1 <0>         0.1515
     52 H20        -1.5942   -1.9970   -0.4255 H         1 <0>         0.4119
     53 H21        -1.6595   -2.7143    1.0923 H         1 <0>         0.4197
@<TRIPOS>BOND
     1    1    6 ar
     2    1    2 ar
     3    1   33 1
     4    2    3 ar
     5    2   34 1
     6    3    4 ar
     7    3   35 1
     8    4    5 ar
     9    4   32 1
    10    5    6 ar
    11    5    7 1
    12    6   36 1
    13    7   15 1
    14    7    8 1
    15    8    9 2
    16    8   31 1
    17    9   14 ar
    18    9   10 ar
    19   10   11 ar
    20   10   23 1
    21   11   12 ar
    22   12   13 ar
    23   12   16 1
    24   13   14 ar
    25   14   15 2
    26   16   17 1
    27   16   37 1
    28   17   22 1
    29   17   18 1
    30   17   38 1
    31   18   19 1
    32   18   39 1
    33   18   40 1
    34   19   20 1
    35   19   41 1
    36   19   42 1
    37   20   21 1
    38   20   43 1
    39   20   44 1
    40   21   22 1
    41   21   45 1
    42   21   46 1
    43   22   47 1
    44   22   48 1
    45   23   28 ar
    46   23   24 ar
    47   24   25 ar
    48   24   49 1
    49   25   26 ar
    50   25   50 1
    51   26   27 ar
    52   26   30 1
    53   27   28 ar
    54   27   29 1
    55   28   51 1
    56   31   52 1
    57   31   53 1
@<TRIPOS>MOLECULE
ZINC40356490
   75    77     0     0     0
SMALL
USER_CHARGES

@<TRIPOS>ATOM
      1 C1         -0.7669   -2.6106   -0.4436 C.3       1 <0>        -0.1474
      2 C2         -1.9498   -2.0505    0.3489 C.3       1 <0>        -0.1148
      3 C3         -1.9079   -0.5214    0.3154 C.3       1 <0>        -0.0979
      4 H1         -0.9329   -0.1771    0.6604 H         1 <0>         0.0809
      5 C4         -2.9994    0.0388    1.2296 C.3       1 <0>        -0.1479
      6 C5         -2.1430   -0.0360   -1.1163 C.3       1 <0>         0.1497
      7 H2         -1.4325   -0.5209   -1.7857 H         1 <0>         0.1159
      8 C6         -1.9523    1.4576   -1.1780 C.2       1 <0>         0.5183
      9 O1         -2.9167    2.1897   -1.2485 O.2       1 <0>        -0.5287
     10 N1         -0.7101    1.9799   -1.1548 N.am      1 <0>        -0.6035
     11 C7          0.4700    1.1047   -1.1885 C.3       1 <0>         0.0839
     12 C8          1.3559    1.4297    0.0205 C.3       1 <0>         0.0960
     13 N2          1.5546    2.8847    0.0795 N.am      1 <0>        -0.6252
     14 C9          0.3745    3.7599    0.1132 C.3       1 <0>         0.1426
     15 H3          0.6905    4.8020    0.0656 H         1 <0>         0.1147
     16 C10        -0.5114    3.4351   -1.1015 C.3       1 <0>         0.1030
     17 C11        -0.4068    3.5188    1.4064 C.3       1 <0>        -0.1577
     18 C12         2.7969    3.4069    0.1027 C.2       1 <0>         0.7101
     19 O2          2.9503    4.6044    0.2475 O.2       1 <0>        -0.5819
     20 N3          3.8690    2.6019   -0.0346 N.am      1 <0>        -0.7427
     21 C13         5.2201    3.1514    0.1032 C.3       1 <0>         0.1637
     22 C14         5.6717    3.7367   -1.2363 C.3       1 <0>        -0.1287
     23 C15         7.0827    4.3105   -1.0924 C.3       1 <0>        -0.1178
     24 C16         8.0451    3.1982   -0.6714 C.3       1 <0>        -0.1227
     25 C17         7.5935    2.6129    0.6681 C.3       1 <0>        -0.1159
     26 C18         6.1826    2.0391    0.5242 C.3       1 <0>        -0.1264
     27 N4         -3.5085   -0.3713   -1.5276 N.am      1 <0>        -0.7228
     28 C19        -3.7795   -1.5906   -2.0341 C.2       1 <0>         0.7080
     29 O3         -2.8907   -2.4122   -2.1496 O.2       1 <0>        -0.5590
     30 N5         -5.0358   -1.8991   -2.4124 N.am      1 <0>        -0.6793
     31 C20        -5.3347   -3.1914   -2.8586 C.ar      1 <0>         0.1637
     32 C21        -4.3397   -3.9815   -3.4196 C.ar      1 <0>        -0.1291
     33 C22        -4.6378   -5.2564   -3.8584 C.ar      1 <0>        -0.1060
     34 C23        -5.9256   -5.7466   -3.7402 C.ar      1 <0>        -0.1363
     35 C24        -6.9185   -4.9624   -3.1826 C.ar      1 <0>        -0.1010
     36 C25        -6.6253   -3.6885   -2.7360 C.ar      1 <0>        -0.1199
     37 C26        -7.7067   -2.8367   -2.1227 C.3       1 <0>        -0.1152
     38 H4         -0.7468   -3.6962   -0.3478 H         1 <0>         0.0519
     39 H5         -0.8730   -2.3404   -1.4943 H         1 <0>         0.0716
     40 H6          0.1617   -2.1941   -0.0534 H         1 <0>         0.0408
     41 H7         -2.8823   -2.3982   -0.0958 H         1 <0>         0.0752
     42 H8         -1.8899   -2.3931    1.3819 H         1 <0>         0.0571
     43 H9         -2.8318   -0.3071    2.2497 H         1 <0>         0.0602
     44 H10        -2.9695    1.1281    1.2058 H         1 <0>         0.0558
     45 H11        -3.9743   -0.3056    0.8847 H         1 <0>         0.0582
     46 H12         0.1541    0.0626   -1.1409 H         1 <0>         0.1019
     47 H13         1.0283    1.2786   -2.1084 H         1 <0>         0.0820
     48 H14         0.8675    1.0899    0.9338 H         1 <0>         0.0796
     49 H15         2.3200    0.9329   -0.0883 H         1 <0>         0.0911
     50 H16        -0.0214    3.7711   -2.0153 H         1 <0>         0.0762
     51 H17        -1.4756    3.9324   -0.9964 H         1 <0>         0.1077
     52 H18         0.2004    3.8214    2.2596 H         1 <0>         0.0622
     53 H19        -1.3266    4.1035    1.3896 H         1 <0>         0.0704
     54 H20        -0.6508    2.4599    1.4914 H         1 <0>         0.0567
     55 H21         3.7461    1.6587   -0.2247 H         1 <0>         0.3932
     56 H22         5.2179    3.9357    0.8601 H         1 <0>         0.0873
     57 H23         5.6739    2.9524   -1.9933 H         1 <0>         0.0613
     58 H24         4.9860    4.5291   -1.5363 H         1 <0>         0.0688
     59 H25         7.4044    4.7275   -2.0468 H         1 <0>         0.0648
     60 H26         7.0804    5.0949   -0.3355 H         1 <0>         0.0646
     61 H27         8.0474    2.4139   -1.4284 H         1 <0>         0.0625
     62 H28         9.0504    3.6070   -0.5689 H         1 <0>         0.0644
     63 H29         8.2792    1.8205    0.9680 H         1 <0>         0.0679
     64 H30         7.5913    3.3972    1.4250 H         1 <0>         0.0657
     65 H31         5.8608    1.6221    1.4785 H         1 <0>         0.0681
     66 H32         6.1848    1.2547   -0.2327 H         1 <0>         0.0674
     67 H33        -4.2176    0.2841   -1.4354 H         1 <0>         0.4076
     68 H34        -5.7327   -1.2254   -2.3755 H         1 <0>         0.4073
     69 H35        -3.3340   -3.5990   -3.5128 H         1 <0>         0.1560
     70 H36        -3.8645   -5.8713   -4.2947 H         1 <0>         0.1234
     71 H37        -6.1563   -6.7439   -4.0844 H         1 <0>         0.1213
     72 H38        -7.9233   -5.3478   -3.0923 H         1 <0>         0.1243
     73 H39        -8.1996   -2.2574   -2.9034 H         1 <0>         0.0704
     74 H40        -8.4376   -3.4772   -1.6292 H         1 <0>         0.0717
     75 H41        -7.2649   -2.1594   -1.3918 H         1 <0>         0.0611
@<TRIPOS>BOND
     1    1    2 1
     2    1   38 1
     3    1   39 1
     4    1   40 1
     5    2    3 1
     6    2   41 1
     7    2   42 1
     8    3    4 1
     9    3    5 1
    10    3    6 1
    11    5   43 1
    12    5   44 1
    13    5   45 1
    14    6    7 1
    15    6    8 1
    16    6   27 1
    17    8    9 2
    18    8   10 am
    19   10   16 1
    20   10   11 1
    21   11   12 1
    22   11   46 1
    23   11   47 1
    24   12   13 1
    25   12   48 1
    26   12   49 1
    27   13   14 1
    28   13   18 am
    29   14   15 1
    30   14   16 1
    31   14   17 1
    32   16   50 1
    33   16   51 1
    34   17   52 1
    35   17   53 1
    36   17   54 1
    37   18   19 2
    38   18   20 am
    39   20   21 1
    40   20   55 1
    41   21   26 1
    42   21   22 1
    43   21   56 1
    44   22   23 1
    45   22   57 1
    46   22   58 1
    47   23   24 1
    48   23   59 1
    49   23   60 1
    50   24   25 1
    51   24   61 1
    52   24   62 1
    53   25   26 1
    54   25   63 1
    55   25   64 1
    56   26   65 1
    57   26   66 1
    58   27   28 am
    59   27   67 1
    60   28   29 2
    61   28   30 am
    62   30   31 1
    63   30   68 1
    64   31   36 ar
    65   31   32 ar
    66   32   33 ar
    67   32   69 1
    68   33   34 ar
    69   33   70 1
    70   34   35 ar
    71   34   71 1
    72   35   36 ar
    73   35   72 1
    74   36   37 1
    75   37   73 1
    76   37   74 1
    77   37   75 1
@<TRIPOS>MOLECULE
ZINC12951395
   56    60     0     0     0
SMALL
USER_CHARGES

@<TRIPOS>ATOM
      1 C1          0.5684    1.3813    0.2968 C.3       1 <0>         0.0265
      2 O1          0.3927   -0.0330    0.1934 O.3       1 <0>        -0.3047
      3 C2          0.7874   -0.6210   -0.9677 C.ar      1 <0>         0.1009
      4 C3          1.3368    0.1460   -1.9826 C.ar      1 <0>        -0.1595
      5 C4          1.7379   -0.4533   -3.1620 C.ar      1 <0>        -0.0709
      6 C5          1.5917   -1.8175   -3.3324 C.ar      1 <0>        -0.0945
      7 C6          1.0438   -2.5883   -2.3241 C.ar      1 <0>        -0.1725
      8 C7          0.6455   -1.9949   -1.1370 C.ar      1 <0>         0.1045
      9 O2          0.1119   -2.7526   -0.1417 O.3       1 <0>        -0.2969
     10 C8          0.1029   -4.1681   -0.3377 C.3       1 <0>         0.0794
     11 C9         -1.1687   -4.5874   -1.1040 C.3       1 <0>        -0.1488
     12 C10        -1.5683   -5.9405   -0.4650 C.3       1 <0>        -0.1239
     13 C11        -1.2445   -5.7198    1.0335 C.3       1 <0>        -0.1236
     14 C12         0.0547   -4.8881    1.0213 C.3       1 <0>        -0.1214
     15 C13         2.3353    0.3824   -4.2647 C.3       1 <0>         0.1252
     16 H1          2.3718    1.4271   -3.9559 H         1 <0>         0.0937
     17 C14         3.7271   -0.1053   -4.5755 C.2       1 <0>        -0.2442
     18 C15         4.8665    0.0190   -3.8530 C.2       1 <0>         0.1750
     19 N1          5.8629   -0.5918   -4.5609 N.pl3     1 <0>        -0.4562
     20 H2          6.7923   -0.6637   -4.2926 H         1 <0>         0.4521
     21 N2          5.3034   -1.0975   -5.7446 N.2       1 <0>        -0.2463
     22 C16         4.0330   -0.8092   -5.7566 C.2       1 <0>         0.2712
     23 O3          3.0870   -1.0900   -6.6935 O.3       1 <0>        -0.2100
     24 C17         1.9068   -0.4466   -6.5969 C.2       1 <0>         0.4419
     25 C18         1.5004    0.2495   -5.5134 C.2       1 <0>        -0.2655
     26 C19         0.2201    0.8898   -5.5510 C.1       1 <0>         0.2711
     27 N3         -0.7956    1.3978   -5.5809 N.1       1 <0>        -0.4399
     28 N4          1.0589   -0.5017   -7.6750 N.pl3     1 <0>        -0.8302
     29 C20         5.0058    0.6908   -2.5420 C.ar      1 <0>        -0.0353
     30 C21         4.4052    1.9309   -2.3234 C.ar      1 <0>        -0.0739
     31 C22         4.5385    2.5526   -1.0991 C.ar      1 <0>        -0.1088
     32 C23         5.2666    1.9481   -0.0883 C.ar      1 <0>        -0.0201
     33 C24         5.8652    0.7176   -0.2998 C.ar      1 <0>        -0.1055
     34 C25         5.7334    0.0838   -1.5180 C.ar      1 <0>        -0.0833
     35 Cl1         5.4301    2.7363    1.4498 Cl        1 <0>        -0.0595
     36 H3          1.6254    1.6250    0.1896 H         1 <0>         0.0539
     37 H4         -0.0002    1.8766   -0.4903 H         1 <0>         0.0537
     38 H5          0.2140    1.7213    1.2699 H         1 <0>         0.0998
     39 H6          1.4515    1.2119   -1.8523 H         1 <0>         0.1320
     40 H7          1.9059   -2.2819   -4.2554 H         1 <0>         0.1185
     41 H8          0.9304   -3.6537   -2.4598 H         1 <0>         0.1336
     42 H9          0.9909   -4.4738   -0.8910 H         1 <0>         0.0747
     43 H10        -1.9594   -3.8506   -0.9629 H         1 <0>         0.0801
     44 H11        -0.9503   -4.7158   -2.1641 H         1 <0>         0.0704
     45 H12        -2.6315   -6.1352   -0.6059 H         1 <0>         0.0715
     46 H13        -0.9681   -6.7532   -0.8743 H         1 <0>         0.0696
     47 H14        -2.0475   -5.1659    1.5198 H         1 <0>         0.0701
     48 H15        -1.0814   -6.6747    1.5332 H         1 <0>         0.0704
     49 H16         0.9189   -5.5439    1.1272 H         1 <0>         0.0764
     50 H17         0.0382   -4.1579    1.8303 H         1 <0>         0.0820
     51 H18         1.3177   -0.9921   -8.4709 H         1 <0>         0.4124
     52 H19         0.2011   -0.0502   -7.6410 H         1 <0>         0.4272
     53 H20         3.8374    2.4034   -3.1112 H         1 <0>         0.1406
     54 H21         4.0743    3.5128   -0.9288 H         1 <0>         0.1418
     55 H22         6.4322    0.2509    0.4920 H         1 <0>         0.1404
     56 H23         6.1963   -0.8784   -1.6802 H         1 <0>         0.1350
@<TRIPOS>BOND
     1    1    2 1
     2    1   36 1
     3    1   37 1
     4    1   38 1
     5    2    3 1
     6    3    8 ar
     7    3    4 ar
     8    4    5 ar
     9    4   39 1
    10    5    6 ar
    11    5   15 1
    12    6    7 ar
    13    6   40 1
    14    7    8 ar
    15    7   41 1
    16    8    9 1
    17    9   10 1
    18   10   14 1
    19   10   11 1
    20   10   42 1
    21   11   12 1
    22   11   43 1
    23   11   44 1
    24   12   13 1
    25   12   45 1
    26   12   46 1
    27   13   14 1
    28   13   47 1
    29   13   48 1
    30   14   49 1
    31   14   50 1
    32   15   16 1
    33   15   25 1
    34   15   17 1
    35   17   22 1
    36   17   18 2
    37   18   19 1
    38   18   29 1
    39   19   20 1
    40   19   21 1
    41   21   22 2
    42   22   23 1
    43   23   24 1
    44   24   25 2
    45   24   28 1
    46   25   26 1
    47   26   27 3
    48   28   51 1
    49   28   52 1
    50   29   34 ar
    51   29   30 ar
    52   30   31 ar
    53   30   53 1
    54   31   32 ar
    55   31   54 1
    56   32   33 ar
    57   32   35 1
    58   33   34 ar
    59   33   55 1
    60   34   56 1
@<TRIPOS>MOLECULE
ZINC11589310
   25    26     0     0     0
SMALL
USER_CHARGES
(E)-2-(4-chlorophenyl)-3-(2-furyl)prop-2-enoic acid
@<TRIPOS>ATOM
      1 C1         -1.1475    1.8993    0.0171 C.2       1 <0>        -0.2140
      2 C2         -0.0126    1.0758    0.0080 C.2       1 <0>        -0.2061
      3 C3          1.0835    1.9176    0.0020 C.2       1 <0>         0.0343
      4 O1          0.6270    3.1878    0.0132 O.3       1 <0>        -0.1504
      5 C4         -0.7132    3.1798    0.0260 C.2       1 <0>        -0.0537
      6 C5          2.4377    1.5202   -0.0131 C.2       1 <0>        -0.0859
      7 C6          3.4353    2.4717   -0.0175 C.2       1 <0>        -0.0810
      8 C7          3.0861    3.9103   -0.0064 C.ar      1 <0>        -0.0029
      9 C8          2.4199    4.4776   -1.0932 C.ar      1 <0>        -0.0775
     10 C9          2.0916    5.8173   -1.0747 C.ar      1 <0>        -0.1152
     11 C10         2.4324    6.6014    0.0145 C.ar      1 <0>        -0.0411
     12 C11         3.0990    6.0452    1.0933 C.ar      1 <0>        -0.1140
     13 C12         3.4270    4.7053    1.0884 C.ar      1 <0>        -0.0702
     14 Cl1         2.0219    8.2881    0.0281 Cl        1 <0>        -0.0915
     15 C13         4.8411    2.0592   -0.0331 C.2       1 <0>         0.4865
     16 O2          5.1280    0.8771   -0.0422 O.co2     1 <0>        -0.6259
     17 H1         -2.1767    1.5719    0.0195 H         1 <0>         0.1431
     18 H2          0.0021   -0.0041    0.0020 H         1 <0>         0.1478
     19 H3         -1.3450    4.0557    0.0370 H         1 <0>         0.1945
     20 H4          2.6924    0.4707   -0.0211 H         1 <0>         0.1580
     21 H5          2.1579    3.8680   -1.9454 H         1 <0>         0.1223
     22 H6          1.5717    6.2565   -1.9133 H         1 <0>         0.1261
     23 H7          3.3624    6.6615    1.9402 H         1 <0>         0.1280
     24 H8          3.9463    4.2723    1.9306 H         1 <0>         0.1292
     25 O3          5.8174    2.9904   -0.0374 O.co2     1 <0>        -0.7406
@<TRIPOS>BOND
     1    1    5 2
     2    1    2 1
     3    1   17 1
     4    2    3 2
     5    2   18 1
     6    3    4 1
     7    3    6 1
     8    4    5 1
     9    5   19 1
    10    6    7 2
    11    6   20 1
    12    7    8 1
    13    7   15 1
    14    8   13 ar
    15    8    9 ar
    16    9   10 ar
    17    9   21 1
    18   10   11 ar
    19   10   22 1
    20   11   12 ar
    21   11   14 1
    22   12   13 ar
    23   12   23 1
    24   13   24 1
    25   15   16 2
    26   15   25 1
@<TRIPOS>MOLECULE
ZINC36917597
   36    39     0     0     0
SMALL
USER_CHARGES

@<TRIPOS>ATOM
      1 C1          1.2249   -0.7004   -0.1639 C.ar      1 <0>        -0.1104
      2 C2          2.4015   -0.0135   -0.3729 C.ar      1 <0>        -0.1041
      3 C3          2.3779    1.3076   -0.7922 C.ar      1 <0>        -0.1150
      4 C4          1.1686    1.9467   -1.0045 C.ar      1 <0>        -0.0949
      5 C5         -0.0172    1.2678   -0.7984 C.ar      1 <0>        -0.1066
      6 C6          0.0021   -0.0617   -0.3764 C.ar      1 <0>         0.0095
      7 C7         -1.2649   -0.7899   -0.1559 C.2       1 <0>         0.0173
      8 C8         -1.4267   -2.1595   -0.2000 C.2       1 <0>        -0.1845
      9 C9         -2.7654   -2.4361    0.0607 C.2       1 <0>        -0.1709
     10 C10        -3.4068   -1.2267    0.2617 C.2       1 <0>        -0.0014
     11 N1         -2.4704   -0.2231    0.1312 N.pl3     1 <0>        -0.3814
     12 C11        -2.7287    1.2118    0.2741 C.3       1 <0>         0.0754
     13 C12        -1.8071    2.0066    1.2014 C.3       1 <0>        -0.1867
     14 C13        -3.2455    1.7053    1.6270 C.3       1 <0>        -0.1265
     15 C14        -4.7822   -1.0508    0.5557 C.2       1 <0>         0.5382
     16 O1         -5.4946   -2.0265    0.7602 O.co2     1 <0>        -0.6842
     17 O2         -5.2588    0.0768    0.6053 O.co2     1 <0>        -0.6881
     18 C15         1.4152    3.3712   -1.4541 C.3       1 <0>        -0.0813
     19 C16         2.8813    3.6669   -1.0736 C.3       1 <0>        -0.1198
     20 C17         3.5173    2.2608   -1.0855 C.3       1 <0>        -0.0782
     21 H1          1.2491   -1.7308    0.1588 H         1 <0>         0.1264
     22 H2          3.3478   -0.5076   -0.2086 H         1 <0>         0.1175
     23 H3         -0.9603    1.7672   -0.9644 H         1 <0>         0.1241
     24 H4         -0.6536   -2.8861   -0.4014 H         1 <0>         0.1305
     25 H5         -3.2201   -3.4150    0.0992 H         1 <0>         0.1376
     26 H6         -3.0987    1.7142   -0.6197 H         1 <0>         0.1219
     27 H7         -1.0086    1.4618    1.7051 H         1 <0>         0.0954
     28 H8         -1.5706    3.0321    0.9177 H         1 <0>         0.1013
     29 H9         -3.9553    2.5325    1.6233 H         1 <0>         0.1036
     30 H10        -3.3933    0.9623    2.4107 H         1 <0>         0.0961
     31 H11         1.2798    3.4563   -2.5323 H         1 <0>         0.0770
     32 H12         0.7441    4.0539   -0.9329 H         1 <0>         0.0728
     33 H13         3.3519    4.3112   -1.8162 H         1 <0>         0.0731
     34 H14         2.9417    4.1109   -0.0800 H         1 <0>         0.0705
     35 H15         4.2822    2.1852   -0.3126 H         1 <0>         0.0704
     36 H16         3.9459    2.0479   -2.0649 H         1 <0>         0.0752
@<TRIPOS>BOND
     1    1    6 ar
     2    1    2 ar
     3    1   21 1
     4    2    3 ar
     5    2   22 1
     6    3   20 1
     7    3    4 ar
     8    4    5 ar
     9    4   18 1
    10    5    6 ar
    11    5   23 1
    12    6    7 1
    13    7   11 1
    14    7    8 2
    15    8    9 1
    16    8   24 1
    17    9   10 2
    18    9   25 1
    19   10   11 1
    20   10   15 1
    21   11   12 1
    22   12   14 1
    23   12   13 1
    24   12   26 1
    25   13   14 1
    26   13   27 1
    27   13   28 1
    28   14   29 1
    29   14   30 1
    30   15   16 2
    31   15   17 1
    32   18   19 1
    33   18   31 1
    34   18   32 1
    35   19   20 1
    36   19   33 1
    37   19   34 1
    38   20   35 1
    39   20   36 1
@<TRIPOS>MOLECULE
ZINC44241617
   25    26     0     0     0
SMALL
USER_CHARGES

@<TRIPOS>ATOM
      1 C1         -0.0178    1.4608    0.0101 C.3       1 <0>         0.1041
      2 N1          0.0021   -0.0041    0.0020 N.pl3     1 <0>        -0.5756
      3 C2          0.0241   -0.7433    1.2666 C.3       1 <0>         0.1766
      4 C3         -1.3889   -1.0161    1.7137 C.ar      1 <0>        -0.1064
      5 C4         -2.0473   -0.1051    2.5184 C.ar      1 <0>        -0.1089
      6 C5         -3.3435   -0.3554    2.9285 C.ar      1 <0>        -0.1295
      7 C6         -3.9814   -1.5164    2.5336 C.ar      1 <0>        -0.1204
      8 C7         -3.3234   -2.4270    1.7282 C.ar      1 <0>        -0.1237
      9 C8         -2.0287   -2.1747    1.3145 C.ar      1 <0>        -0.0887
     10 C9          0.0000   -0.6925   -1.2055 C.2       1 <0>         0.3189
     11 N2          0.0098   -1.9925   -1.4261 N.2       1 <0>        -0.3751
     12 N3          0.0048   -2.4680   -2.7170 N.2       1 <0>        -0.3499
     13 C10        -0.0096   -1.6210   -3.7283 C.2       1 <0>         0.2978
     14 S1         -0.0245   -0.0528   -2.8731 S.3       1 <0>        -0.1840
     15 S2         -0.0181   -1.9489   -5.4595 S.3       1 <0>        -0.7072
     16 H1          1.0048    1.8381    0.0023 H         1 <0>         0.0526
     17 H2         -0.5450    1.8219   -0.8730 H         1 <0>         0.0683
     18 H3         -0.5280    1.8123    0.9069 H         1 <0>         0.0707
     19 H4          0.5496   -1.6879    1.1262 H         1 <0>         0.0908
     20 H5          0.5371   -0.1514    2.0246 H         1 <0>         0.0838
     21 H6         -1.5489    0.8020    2.8269 H         1 <0>         0.1177
     22 H7         -3.8577    0.3560    3.5577 H         1 <0>         0.1179
     23 H8         -4.9939   -1.7122    2.8546 H         1 <0>         0.1175
     24 H9         -3.8216   -3.3342    1.4199 H         1 <0>         0.1202
     25 H10        -1.5158   -2.8843    0.6822 H         1 <0>         0.1323
@<TRIPOS>BOND
     1    1    2 1
     2    1   16 1
     3    1   17 1
     4    1   18 1
     5    2    3 1
     6    2   10 1
     7    3    4 1
     8    3   19 1
     9    3   20 1
    10    4    9 ar
    11    4    5 ar
    12    5    6 ar
    13    5   21 1
    14    6    7 ar
    15    6   22 1
    16    7    8 ar
    17    7   23 1
    18    8    9 ar
    19    8   24 1
    20    9   25 1
    21   10   14 1
    22   10   11 2
    23   11   12 1
    24   12   13 2
    25   13   14 1
    26   13   15 1
@<TRIPOS>MOLECULE
ZINC50577447
   39    40     0     0     0
SMALL
USER_CHARGES

@<TRIPOS>ATOM
      1 C1          0.0182    1.5030    0.0102 C.3       1 <0>        -0.1187
      2 C2          0.0197   -0.0039    0.0020 C.ar      1 <0>        -0.0313
      3 C3          0.0233   -0.6815   -1.1841 C.ar      1 <0>        -0.2004
      4 C4          0.0247   -2.0741   -1.1929 C.ar      1 <0>         0.2116
      5 C5          0.0223   -2.7825    0.0066 C.ar      1 <0>        -0.2023
      6 C6          0.0187   -2.1134    1.1971 C.ar      1 <0>        -0.0643
      7 C7          0.0232   -0.7121    1.2108 C.ar      1 <0>        -0.0981
      8 C8          0.0249    0.0114    2.4877 C.2       1 <0>        -0.1025
      9 C9          0.0283   -0.6751    3.6548 C.2       1 <0>        -0.1836
     10 C10         0.0299    0.0214    4.8839 C.2       1 <0>         0.5014
     11 O1          0.0283    1.2467    4.8938 O.co2     1 <0>        -0.6992
     12 O2          0.0330   -0.5998    5.9402 O.co2     1 <0>        -0.7039
     13 N1          0.0279   -2.7594   -2.4025 N.pl3     1 <0>        -0.6285
     14 C11         0.1517   -4.2231   -2.4332 C.3       1 <0>         0.1207
     15 C12         1.3144   -4.6003   -3.3566 C.3       1 <0>        -0.1312
     16 C13         1.0992   -3.9588   -4.7293 C.3       1 <0>        -0.0907
     17 C14         1.0725   -2.4356   -4.5838 C.3       1 <0>        -0.1311
     18 C15        -0.0986   -2.0343   -3.6741 C.3       1 <0>         0.1205
     19 C16         2.2409   -4.3616   -5.6648 C.3       1 <0>        -0.1469
     20 H1          1.0455    1.8674    0.0099 H         1 <0>         0.0702
     21 H2         -0.4980    1.8707   -0.8765 H         1 <0>         0.0601
     22 H3         -0.4939    1.8610    0.9034 H         1 <0>         0.0767
     23 H4          0.0248   -0.1363   -2.1164 H         1 <0>         0.1184
     24 H5          0.0231   -3.8624   -0.0050 H         1 <0>         0.1181
     25 H6          0.0162   -2.6634    2.1265 H         1 <0>         0.1251
     26 H7          0.0235    1.0914    2.4964 H         1 <0>         0.1266
     27 H8          0.0297   -1.7550    3.6461 H         1 <0>         0.0967
     28 H9          0.3486   -4.5944   -1.4274 H         1 <0>         0.0843
     29 H10        -0.7723   -4.6601   -2.8119 H         1 <0>         0.0572
     30 H11         2.2501   -4.2399   -2.9292 H         1 <0>         0.0667
     31 H12         1.3566   -5.6842   -3.4642 H         1 <0>         0.0703
     32 H13         0.1514   -4.3005   -5.1453 H         1 <0>         0.0687
     33 H14         2.0105   -2.0955   -4.1449 H         1 <0>         0.0669
     34 H15         0.9426   -1.9787   -5.5649 H         1 <0>         0.0695
     35 H16        -1.0425   -2.2965   -4.1519 H         1 <0>         0.0576
     36 H17        -0.0669   -0.9609   -3.4873 H         1 <0>         0.0841
     37 H18         2.2593   -5.4464   -5.7695 H         1 <0>         0.0538
     38 H19         2.0878   -3.9048   -6.6425 H         1 <0>         0.0536
     39 H20         3.1889   -4.0206   -5.2489 H         1 <0>         0.0540
@<TRIPOS>BOND
     1    1    2 1
     2    1   20 1
     3    1   21 1
     4    1   22 1
     5    2    7 ar
     6    2    3 ar
     7    3    4 ar
     8    3   23 1
     9    4    5 ar
    10    4   13 1
    11    5    6 ar
    12    5   24 1
    13    6    7 ar
    14    6   25 1
    15    7    8 1
    16    8    9 2
    17    8   26 1
    18    9   10 1
    19    9   27 1
    20   10   11 2
    21   10   12 1
    22   13   18 1
    23   13   14 1
    24   14   15 1
    25   14   28 1
    26   14   29 1
    27   15   16 1
    28   15   30 1
    29   15   31 1
    30   16   17 1
    31   16   19 1
    32   16   32 1
    33   17   18 1
    34   17   33 1
    35   17   34 1
    36   18   35 1
    37   18   36 1
    38   19   37 1
    39   19   38 1
    40   19   39 1
@<TRIPOS>MOLECULE
ZINC62762855
   31    32     0     0     0
SMALL
USER_CHARGES

@<TRIPOS>ATOM
      1 C1          1.1769   -0.7186    0.4223 C.ar      1 <0>        -0.2040
      2 C2          2.3559   -0.0300    0.6369 C.ar      1 <0>        -0.0820
      3 C3          2.3575    1.3535    0.6517 C.ar      1 <0>         0.0048
      4 C4          1.1759    2.0514    0.4510 C.ar      1 <0>         0.1092
      5 C5         -0.0050    1.3640    0.2360 C.ar      1 <0>        -0.1672
      6 C6         -0.0059   -0.0230    0.2214 C.ar      1 <0>         0.1884
      7 O1         -1.1656   -0.7001    0.0098 O.3       1 <0>        -0.2647
      8 C7         -1.0745   -2.1212   -0.1097 C.3       1 <0>         0.1131
      9 H1         -0.1470   -2.3844   -0.6180 H         1 <0>         0.0675
     10 C8         -1.0890   -2.7522    1.2841 C.3       1 <0>        -0.1483
     11 C9         -0.9916   -4.2737    1.1561 C.3       1 <0>        -0.1126
     12 C10        -2.1816   -4.7949    0.3480 C.3       1 <0>        -0.1242
     13 C11        -2.1671   -4.1639   -1.0458 C.3       1 <0>        -0.0893
     14 C12        -2.2646   -2.6424   -0.9178 C.3       1 <0>        -0.1541
     15 H2         -3.1922   -2.3792   -0.4095 H         1 <0>         0.0730
     16 C13        -2.2503   -2.0209   -2.2906 C.2       1 <0>         0.4935
     17 O2         -2.7062   -2.6327   -3.2416 O.co2     1 <0>        -0.6998
     18 O3         -1.7828   -0.9062   -2.4504 O.co2     1 <0>        -0.6808
     19 F1          1.1782    3.4023    0.4659 F         1 <0>        -0.1291
     20 F2          3.5108    2.0250    0.8621 F         1 <0>        -0.1387
     21 H3          1.1776   -1.7985    0.4065 H         1 <0>         0.1435
     22 H4          3.2766   -0.5724    0.7937 H         1 <0>         0.1428
     23 H5         -0.9255    1.9068    0.0800 H         1 <0>         0.1521
     24 H6         -0.2412   -2.3809    1.8598 H         1 <0>         0.0635
     25 H7         -2.0166   -2.4890    1.7924 H         1 <0>         0.0714
     26 H8         -0.0640   -4.5369    0.6478 H         1 <0>         0.0610
     27 H9         -1.0019   -4.7232    2.1491 H         1 <0>         0.0616
     28 H10        -2.1121   -5.8788    0.2568 H         1 <0>         0.0589
     29 H11        -3.1092   -4.5317    0.8563 H         1 <0>         0.0596
     30 H12        -1.2395   -4.4271   -1.5541 H         1 <0>         0.0557
     31 H13        -3.0149   -4.5351   -1.6215 H         1 <0>         0.0749
@<TRIPOS>BOND
     1    1    6 ar
     2    1    2 ar
     3    1   21 1
     4    2    3 ar
     5    2   22 1
     6    3    4 ar
     7    3   20 1
     8    4    5 ar
     9    4   19 1
    10    5    6 ar
    11    5   23 1
    12    6    7 1
    13    7    8 1
    14    8    9 1
    15    8   14 1
    16    8   10 1
    17   10   11 1
    18   10   24 1
    19   10   25 1
    20   11   12 1
    21   11   26 1
    22   11   27 1
    23   12   13 1
    24   12   28 1
    25   12   29 1
    26   13   14 1
    27   13   30 1
    28   13   31 1
    29   14   15 1
    30   14   16 1
    31   16   17 2
    32   16   18 1
@<TRIPOS>MOLECULE
ZINC01415244
   57    60     0     0     0
SMALL
USER_CHARGES
3-[(4-chlorophenyl)carbamoyl-[4-(4-methoxyphenyl)thiazol-2-yl]-amino]-1-(p-tolyl)urea
@<TRIPOS>ATOM
      1 C1          1.2003    3.5882    0.0458 C.3       1 <0>        -0.1157
      2 C2          1.2152    2.0813    0.0281 C.ar      1 <0>        -0.0943
      3 C3          0.1794    1.3881   -0.5707 C.ar      1 <0>        -0.1006
      4 C4          0.1901    0.0071   -0.5885 C.ar      1 <0>        -0.1357
      5 C5          1.2426   -0.6852   -0.0042 C.ar      1 <0>         0.1447
      6 C6          2.2813    0.0140    0.5964 C.ar      1 <0>        -0.1112
      7 C7          2.2647    1.3949    0.6108 C.ar      1 <0>        -0.1012
      8 N1          1.2562   -2.0845   -0.0201 N.am      1 <0>        -0.6758
      9 C8          2.4244   -2.7457   -0.1409 C.2       1 <0>         0.7132
     10 O1          3.4731   -2.1304   -0.1509 O.2       1 <0>        -0.5333
     11 N2          2.4303   -4.0890   -0.2505 N.am      1 <0>        -0.5165
     12 N3          1.2220   -4.7980   -0.2390 N.am      1 <0>        -0.3193
     13 C9          0.8457   -5.5111    0.8925 C.2       1 <0>         0.3049
     14 N4          1.4776   -5.6454    2.0437 N.2       1 <0>        -0.5133
     15 C10         0.9678   -6.3718    3.0273 C.2       1 <0>         0.1260
     16 C11        -0.2355   -6.9943    2.8473 C.2       1 <0>        -0.2389
     17 S1         -0.6263   -6.4839    1.1787 S.3       1 <0>         0.1566
     18 C12         1.6961   -6.5079    4.3124 C.ar      1 <0>        -0.0668
     19 C13         1.1521   -7.2683    5.3463 C.ar      1 <0>        -0.0600
     20 C14         1.8345   -7.3976    6.5381 C.ar      1 <0>        -0.2090
     21 C15         3.0564   -6.7624    6.7123 C.ar      1 <0>         0.1369
     22 C16         3.5977   -5.9994    5.6869 C.ar      1 <0>        -0.1545
     23 C17         2.9230   -5.8709    4.4907 C.ar      1 <0>        -0.0435
     24 O2          3.7239   -6.8874    7.8896 O.3       1 <0>        -0.3160
     25 C18         3.1095   -7.6872    8.9020 C.3       1 <0>         0.0255
     26 C19         0.4246   -4.7883   -1.3256 C.2       1 <0>         0.7160
     27 O3         -0.6240   -5.4036   -1.3156 O.2       1 <0>        -0.5142
     28 N5          0.7896   -4.0966   -2.4232 N.am      1 <0>        -0.6618
     29 C20        -0.0816   -4.0057   -3.5151 C.ar      1 <0>         0.1536
     30 C21        -0.8944   -5.0814   -3.8478 C.ar      1 <0>        -0.1034
     31 C22        -1.7568   -4.9873   -4.9224 C.ar      1 <0>        -0.0891
     32 C23        -1.8032   -3.8265   -5.6743 C.ar      1 <0>        -0.0428
     33 C24        -0.9906   -2.7550   -5.3481 C.ar      1 <0>        -0.0886
     34 C25        -0.1305   -2.8419   -4.2710 C.ar      1 <0>        -0.1226
     35 Cl1        -2.8832   -3.7141   -7.0288 Cl        1 <0>        -0.0634
     36 H1          0.6901    3.9360    0.9440 H         1 <0>         0.0713
     37 H2          2.2243    3.9617    0.0418 H         1 <0>         0.0674
     38 H3          0.6756    3.9567   -0.8357 H         1 <0>         0.0670
     39 H4         -0.6366    1.9271   -1.0290 H         1 <0>         0.1280
     40 H5         -0.6193   -0.5338   -1.0561 H         1 <0>         0.1241
     41 H6          3.1011   -0.5216    1.0520 H         1 <0>         0.1407
     42 H7          3.0722    1.9392    1.0777 H         1 <0>         0.1274
     43 H8          0.4249   -2.5785    0.0557 H         1 <0>         0.4059
     44 H9          3.2710   -4.5649   -0.3374 H         1 <0>         0.4438
     45 H10        -0.7972   -7.6182    3.5267 H         1 <0>         0.2018
     46 H11         0.1996   -7.7594    5.2128 H         1 <0>         0.1289
     47 H12         1.4158   -7.9902    7.3379 H         1 <0>         0.1328
     48 H13         4.5484   -5.5061    5.8256 H         1 <0>         0.1340
     49 H14         3.3448   -5.2771    3.6933 H         1 <0>         0.1380
     50 H15         2.1383   -7.2646    9.1594 H         1 <0>         0.0570
     51 H16         2.9767   -8.7036    8.5312 H         1 <0>         0.0571
     52 H17         3.7448   -7.7036    9.7875 H         1 <0>         0.1019
     53 H18         1.6560   -3.6616   -2.4565 H         1 <0>         0.4165
     54 H19        -0.8553   -5.9892   -3.2639 H         1 <0>         0.1511
     55 H20        -2.3926   -5.8219   -5.1786 H         1 <0>         0.1408
     56 H21        -1.0292   -1.8499   -5.9360 H         1 <0>         0.1415
     57 H22         0.5033   -2.0052   -4.0166 H         1 <0>         0.1373
@<TRIPOS>BOND
     1    1    2 1
     2    1   36 1
     3    1   37 1
     4    1   38 1
     5    2    7 ar
     6    2    3 ar
     7    3    4 ar
     8    3   39 1
     9    4    5 ar
    10    4   40 1
    11    5    6 ar
    12    5    8 1
    13    6    7 ar
    14    6   41 1
    15    7   42 1
    16    8    9 am
    17    8   43 1
    18    9   10 2
    19    9   11 am
    20   11   12 1
    21   11   44 1
    22   12   13 1
    23   12   26 am
    24   13   17 1
    25   13   14 2
    26   14   15 1
    27   15   16 2
    28   15   18 1
    29   16   17 1
    30   16   45 1
    31   18   23 ar
    32   18   19 ar
    33   19   20 ar
    34   19   46 1
    35   20   21 ar
    36   20   47 1
    37   21   22 ar
    38   21   24 1
    39   22   23 ar
    40   22   48 1
    41   23   49 1
    42   24   25 1
    43   25   50 1
    44   25   51 1
    45   25   52 1
    46   26   27 2
    47   26   28 am
    48   28   29 1
    49   28   53 1
    50   29   34 ar
    51   29   30 ar
    52   30   31 ar
    53   30   54 1
    54   31   32 ar
    55   31   55 1
    56   32   33 ar
    57   32   35 1
    58   33   34 ar
    59   33   56 1
    60   34   57 1
@<TRIPOS>MOLECULE
ZINC16572361
   56    58     0     0     0
SMALL
USER_CHARGES
(2R,3S)-N-[5-(4-bromophenyl)-1,3,4-thiadiazol-2-yl]-2-[(4-methoxyphenyl)carbamoylamino]-3-methyl-pentanamide
@<TRIPOS>ATOM
      1 C1          5.4357    4.8181    2.3932 C.3       1 <0>        -0.1418
      2 C2          3.9161    4.9336    2.5289 C.3       1 <0>        -0.1142
      3 C3          3.4557    6.2835    1.9750 C.3       1 <0>        -0.0986
      4 H1          4.0187    7.0842    2.4547 H         1 <0>         0.0837
      5 C4          1.9636    6.4688    2.2580 C.3       1 <0>        -0.1515
      6 C5          3.6973    6.3241    0.4647 C.3       1 <0>         0.1608
      7 H2          4.7413    6.0892    0.2573 H         1 <0>         0.1233
      8 C6          3.3788    7.7012   -0.0580 C.2       1 <0>         0.5105
      9 O1          2.3143    7.9133   -0.5991 O.2       1 <0>        -0.4552
     10 N1          4.2770    8.6971    0.0757 N.am      1 <0>        -0.6070
     11 C7          3.9432    9.9900   -0.3087 C.2       1 <0>         0.2878
     12 N2          2.8169   10.4608   -0.8290 N.2       1 <0>        -0.2730
     13 N3          2.6762   11.6795   -1.1217 N.2       1 <0>        -0.2402
     14 C8          3.6503   12.5620   -0.9366 C.2       1 <0>         0.0928
     15 S1          4.9130   11.4940   -0.2505 S.3       1 <0>         0.0133
     16 C9          3.6833   14.0131   -1.2173 C.ar      1 <0>         0.0030
     17 C10         4.8306   14.7557   -0.9337 C.ar      1 <0>        -0.0855
     18 C11         4.8569   16.1085   -1.2019 C.ar      1 <0>        -0.0872
     19 C12         3.7448   16.7317   -1.7420 C.ar      1 <0>        -0.0735
     20 C13         2.6022   16.0014   -2.0211 C.ar      1 <0>        -0.0878
     21 C14         2.5655   14.6470   -1.7618 C.ar      1 <0>        -0.0632
     22 Br1         3.7864   18.5881   -2.0994 Br        1 <0>        -0.0370
     23 N4          2.8350    5.3401   -0.1944 N.am      1 <0>        -0.7254
     24 C15         3.2326    4.0563   -0.2958 C.2       1 <0>         0.7096
     25 O2          4.3070    3.7148    0.1598 O.2       1 <0>        -0.5607
     26 N5          2.4393    3.1511   -0.9021 N.am      1 <0>        -0.6814
     27 C16         2.8067    1.7987   -0.9214 C.ar      1 <0>         0.1228
     28 C17         1.8341    0.8133   -0.8189 C.ar      1 <0>        -0.1031
     29 C18         2.1967   -0.5190   -0.8384 C.ar      1 <0>        -0.1335
     30 C19         3.5324   -0.8729   -0.9608 C.ar      1 <0>         0.1143
     31 C20         4.5047    0.1112   -1.0632 C.ar      1 <0>        -0.1905
     32 C21         4.1434    1.4439   -1.0434 C.ar      1 <0>        -0.0745
     33 O3          3.8888   -2.1850   -0.9799 O.3       1 <0>        -0.3182
     34 C22         5.2817   -2.4771   -1.1084 C.3       1 <0>         0.0267
     35 H3          5.7220    4.9917    1.3559 H         1 <0>         0.0640
     36 H4          5.9150    5.5604    3.0315 H         1 <0>         0.0419
     37 H5          5.7527    3.8200    2.6954 H         1 <0>         0.0535
     38 H6          3.6385    4.8586    3.5803 H         1 <0>         0.0600
     39 H7          3.4391    4.1293    1.9689 H         1 <0>         0.0768
     40 H8          1.4006    5.6681    1.7783 H         1 <0>         0.0610
     41 H9          1.7915    6.4398    3.3339 H         1 <0>         0.0631
     42 H10         1.6356    7.4304    1.8633 H         1 <0>         0.0562
     43 H11         5.1565    8.5114    0.4404 H         1 <0>         0.4329
     44 H12         5.6972   14.2714   -0.5085 H         1 <0>         0.1364
     45 H13         5.7454   16.6834   -0.9866 H         1 <0>         0.1439
     46 H14         1.7378   16.4930   -2.4424 H         1 <0>         0.1449
     47 H15         1.6733   14.0785   -1.9793 H         1 <0>         0.1484
     48 H16         1.9779    5.6126   -0.5579 H         1 <0>         0.4095
     49 H17         1.6141    3.4355   -1.3252 H         1 <0>         0.4080
     50 H18         0.7937    1.0887   -0.7284 H         1 <0>         0.1324
     51 H19         1.4402   -1.2857   -0.7587 H         1 <0>         0.1351
     52 H20         5.5444   -0.1650   -1.1581 H         1 <0>         0.1308
     53 H21         4.9005    2.2100   -1.1228 H         1 <0>         0.1432
     54 H22         5.6561   -2.0582   -2.0425 H         1 <0>         0.0557
     55 H23         5.8237   -2.0385   -0.2705 H         1 <0>         0.0560
     56 H24         5.4278   -3.5572   -1.1102 H         1 <0>         0.1006
@<TRIPOS>BOND
     1    1    2 1
     2    1   35 1
     3    1   36 1
     4    1   37 1
     5    2    3 1
     6    2   38 1
     7    2   39 1
     8    3    4 1
     9    3    5 1
    10    3    6 1
    11    5   40 1
    12    5   41 1
    13    5   42 1
    14    6    7 1
    15    6    8 1
    16    6   23 1
    17    8    9 2
    18    8   10 am
    19   10   11 1
    20   10   43 1
    21   11   15 1
    22   11   12 2
    23   12   13 1
    24   13   14 2
    25   14   15 1
    26   14   16 1
    27   16   21 ar
    28   16   17 ar
    29   17   18 ar
    30   17   44 1
    31   18   19 ar
    32   18   45 1
    33   19   20 ar
    34   19   22 1
    35   20   21 ar
    36   20   46 1
    37   21   47 1
    38   23   24 am
    39   23   48 1
    40   24   25 2
    41   24   26 am
    42   26   27 1
    43   26   49 1
    44   27   32 ar
    45   27   28 ar
    46   28   29 ar
    47   28   50 1
    48   29   30 ar
    49   29   51 1
    50   30   31 ar
    51   30   33 1
    52   31   32 ar
    53   31   52 1
    54   32   53 1
    55   33   34 1
    56   34   54 1
    57   34   55 1
    58   34   56 1
@<TRIPOS>MOLECULE
ZINC33009736
   64    67     0     0     0
SMALL
USER_CHARGES
2-chloro-N-[3-[(2-methoxy-5-methyl-phenyl)carbamoylamino]-4-(1-piperidyl)phenyl]benzamide
@<TRIPOS>ATOM
      1 C1          8.1294    7.9496   -2.8576 C.3       1 <0>        -0.1117
      2 C2          9.0328    7.4303   -1.7688 C.ar      1 <0>        -0.0996
      3 C3          9.9414    8.2788   -1.1634 C.ar      1 <0>        -0.1032
      4 C4         10.7727    7.8081   -0.1641 C.ar      1 <0>        -0.1840
      5 C5         10.6927    6.4846    0.2377 C.ar      1 <0>         0.0880
      6 C6          9.7814    5.6280   -0.3754 C.ar      1 <0>         0.1488
      7 C7          8.9509    6.1073   -1.3777 C.ar      1 <0>        -0.1044
      8 N1          9.6998    4.2869    0.0233 N.am      1 <0>        -0.6824
      9 C8          8.5524    3.6011   -0.1493 C.2       1 <0>         0.7078
     10 O1          7.6134    4.1212   -0.7206 O.2       1 <0>        -0.5649
     11 N2          8.4459    2.3390    0.3111 N.am      1 <0>        -0.6771
     12 C9          7.2169    1.6685    0.2404 C.ar      1 <0>         0.2223
     13 C10         6.0340    2.3897    0.1978 C.ar      1 <0>        -0.1634
     14 C11         4.8184    1.7230    0.1283 C.ar      1 <0>         0.1777
     15 C12         4.7866    0.3348    0.1072 C.ar      1 <0>        -0.1424
     16 C13         5.9649   -0.3863    0.1438 C.ar      1 <0>        -0.1023
     17 C14         7.1821    0.2747    0.2133 C.ar      1 <0>         0.0306
     18 N3          8.3763   -0.4574    0.2558 N.pl3     1 <0>        -0.4959
     19 C15         8.5715   -1.2183   -0.9849 C.3       1 <0>         0.0605
     20 C16         9.9478   -1.8872   -0.9636 C.3       1 <0>        -0.1172
     21 C17        10.0383   -2.8189    0.2482 C.3       1 <0>        -0.1239
     22 C18         9.7835   -2.0108    1.5236 C.3       1 <0>        -0.1168
     23 C19         8.4119   -1.3384    1.4301 C.3       1 <0>         0.0563
     24 N4          3.6225    2.4510    0.0852 N.am      1 <0>        -0.6765
     25 C20         2.5269    1.9140   -0.4873 C.2       1 <0>         0.5560
     26 O2          2.6024    0.8436   -1.0588 O.2       1 <0>        -0.4938
     27 C21         1.2342    2.6262   -0.4204 C.ar      1 <0>        -0.1315
     28 C22         1.1439    3.8560    0.2347 C.ar      1 <0>        -0.0738
     29 C23        -0.0656    4.5157    0.2931 C.ar      1 <0>        -0.1229
     30 C24        -1.1893    3.9623   -0.2961 C.ar      1 <0>        -0.0784
     31 C25        -1.1073    2.7475   -0.9513 C.ar      1 <0>        -0.1202
     32 C26         0.0965    2.0725   -1.0127 C.ar      1 <0>         0.0152
     33 Cl1         0.1968    0.5441   -1.8299 Cl        1 <0>        -0.0279
     34 O3         11.5059    6.0215    1.2244 O.3       1 <0>        -0.3218
     35 C27        12.4155    6.9566    1.8077 C.3       1 <0>         0.0270
     36 H1          8.3383    9.0157   -3.0299 H         1 <0>         0.0642
     37 H2          7.0797    7.8262   -2.5530 H         1 <0>         0.0694
     38 H3          8.3109    7.3859   -3.7846 H         1 <0>         0.0684
     39 H4         10.0020    9.3119   -1.4722 H         1 <0>         0.1242
     40 H5         11.4812    8.4734    0.3068 H         1 <0>         0.1308
     41 H6          8.2401    5.4469   -1.8520 H         1 <0>         0.1626
     42 H7         10.5722    3.7940    0.4771 H         1 <0>         0.4353
     43 H8          9.3234    1.8350    0.7424 H         1 <0>         0.4398
     44 H9          6.0581    3.4692    0.2190 H         1 <0>         0.1535
     45 H10         3.8396   -0.1820    0.0579 H         1 <0>         0.1426
     46 H11         5.9376   -1.4657    0.1228 H         1 <0>         0.1237
     47 H12         7.7911   -1.9889   -1.0690 H         1 <0>         0.0385
     48 H13         8.5087   -0.5373   -1.8464 H         1 <0>         0.0756
     49 H14        10.0871   -2.4689   -1.8868 H         1 <0>         0.0680
     50 H15        10.7292   -1.1161   -0.8947 H         1 <0>         0.0710
     51 H16         9.2830   -3.6134    0.1571 H         1 <0>         0.0593
     52 H17        11.0410   -3.2694    0.2903 H         1 <0>         0.0650
     53 H18         9.8058   -2.6829    2.3941 H         1 <0>         0.0683
     54 H19        10.5635   -1.2430    1.6332 H         1 <0>         0.0713
     55 H20         8.2320   -0.7454    2.3389 H         1 <0>         0.0764
     56 H21         7.6323   -2.1085    1.3345 H         1 <0>         0.0387
     57 H22         3.5775    3.4610    0.5186 H         1 <0>         0.4315
     58 H23         2.0196    4.2898    0.6944 H         1 <0>         0.1347
     59 H24        -0.1362    5.4669    0.7996 H         1 <0>         0.1378
     60 H25        -2.1337    4.4840   -0.2473 H         1 <0>         0.1390
     61 H26        -1.9871    2.3234   -1.4124 H         1 <0>         0.1418
     62 H27        13.0086    6.4544    2.5862 H         1 <0>         0.1017
     63 H28        11.8503    7.7871    2.2559 H         1 <0>         0.0560
     64 H29        13.0878    7.3481    1.0300 H         1 <0>         0.0563
@<TRIPOS>BOND
     1    1    2 1
     2    1   36 1
     3    1   37 1
     4    1   38 1
     5    2    7 ar
     6    2    3 ar
     7    3    4 ar
     8    3   39 1
     9    4    5 ar
    10    4   40 1
    11    5    6 ar
    12    5   34 1
    13    6    7 ar
    14    6    8 1
    15    7   41 1
    16    8    9 am
    17    8   42 1
    18    9   10 2
    19    9   11 am
    20   11   12 1
    21   11   43 1
    22   12   17 ar
    23   12   13 ar
    24   13   14 ar
    25   13   44 1
    26   14   15 ar
    27   14   24 1
    28   15   16 ar
    29   15   45 1
    30   16   17 ar
    31   16   46 1
    32   17   18 1
    33   18   23 1
    34   18   19 1
    35   19   20 1
    36   19   47 1
    37   19   48 1
    38   20   21 1
    39   20   49 1
    40   20   50 1
    41   21   22 1
    42   21   51 1
    43   21   52 1
    44   22   23 1
    45   22   53 1
    46   22   54 1
    47   23   55 1
    48   23   56 1
    49   24   25 am
    50   24   57 1
    51   25   26 2
    52   25   27 1
    53   27   32 ar
    54   27   28 ar
    55   28   29 ar
    56   28   58 1
    57   29   30 ar
    58   29   59 1
    59   30   31 ar
    60   30   60 1
    61   31   32 ar
    62   31   61 1
    63   32   33 1
    64   34   35 1
    65   35   62 1
    66   35   63 1
    67   35   64 1
@<TRIPOS>MOLECULE
ZINC36545402
   75    77     0     0     0
SMALL
USER_CHARGES

@<TRIPOS>ATOM
      1 C1         -0.3203    1.7394    0.3947 C.3       1 <0>        -0.1625
      2 C2          0.1949    0.3165    0.1695 C.3       1 <0>        -0.0678
      3 H1         -0.6323   -0.3258   -0.1328 H         1 <0>         0.1157
      4 C3          0.7970   -0.2079    1.4476 C.ar      1 <0>        -0.0682
      5 C4          1.8080    0.4957    2.0749 C.ar      1 <0>        -0.1165
      6 C5          2.3603    0.0147    3.2473 C.ar      1 <0>        -0.1183
      7 C6          1.9012   -1.1697    3.7926 C.ar      1 <0>        -0.1224
      8 C7          0.8895   -1.8729    3.1657 C.ar      1 <0>        -0.1169
      9 C8          0.3343   -1.3897    1.9956 C.ar      1 <0>        -0.1093
     10 C9          1.2598    0.3275   -0.9290 C.3       1 <0>         0.1477
     11 H2          2.0591    1.0155   -0.6533 H         1 <0>         0.1053
     12 C10         0.6380    0.7742   -2.2270 C.2       1 <0>         0.5053
     13 O1          0.5246   -0.0089   -3.1462 O.2       1 <0>        -0.4948
     14 N1          0.2079    2.0439   -2.3665 N.am      1 <0>        -0.7240
     15 C11        -0.4753    2.4550   -3.5954 C.3       1 <0>         0.1795
     16 C12         0.4044    2.1249   -4.8029 C.3       1 <0>        -0.1634
     17 C13        -1.8053    1.7080   -3.7139 C.3       1 <0>        -0.1604
     18 C14        -0.7386    3.9616   -3.5529 C.3       1 <0>        -0.1140
     19 C15         0.5928    4.7137   -3.6051 C.3       1 <0>        -0.0647
     20 C16         1.1462    4.6727   -5.0309 C.3       1 <0>        -0.1695
     21 C17         0.3736    6.1684   -3.1848 C.3       1 <0>        -0.1429
     22 C18         1.5900    4.0520   -2.6518 C.3       1 <0>        -0.1680
     23 N2          1.8098   -1.0208   -1.0895 N.am      1 <0>        -0.5475
     24 C19         3.1862   -1.2350   -0.9589 C.ar      1 <0>         0.1355
     25 C20         3.7451   -1.4219    0.2986 C.ar      1 <0>        -0.1065
     26 C21         5.1041   -1.6336    0.4243 C.ar      1 <0>        -0.1087
     27 C22         5.9089   -1.6592   -0.7002 C.ar      1 <0>        -0.0965
     28 C23         5.3565   -1.4736   -1.9540 C.ar      1 <0>        -0.1068
     29 C24         3.9963   -1.2670   -2.0876 C.ar      1 <0>        -0.0318
     30 Cl1         3.3021   -1.0405   -3.6625 Cl        1 <0>        -0.0415
     31 C25         0.9899   -2.0549   -1.3631 C.2       1 <0>         0.5937
     32 O2         -0.2139   -1.8854   -1.3911 O.2       1 <0>        -0.4883
     33 C26         1.5528   -3.3924   -1.6284 C.ar      1 <0>        -0.1379
     34 C27         2.4485   -3.9698   -0.7235 C.ar      1 <0>        -0.0833
     35 C28         2.9721   -5.2189   -0.9747 C.ar      1 <0>        -0.1175
     36 C29         2.6164   -5.9091   -2.1221 C.ar      1 <0>        -0.1109
     37 C30         1.7307   -5.3508   -3.0277 C.ar      1 <0>         0.0742
     38 C31         1.1884   -4.0922   -2.7848 C.ar      1 <0>         0.1412
     39 O3          0.3152   -3.5437   -3.6675 O.3       1 <0>        -0.4727
     40 O4          1.3866   -6.0341   -4.1521 O.3       1 <0>        -0.4891
     41 H3          0.5078    2.3828    0.6921 H         1 <0>         0.0596
     42 H4         -0.7603    2.1169   -0.5284 H         1 <0>         0.0729
     43 H5         -1.0754    1.7323    1.1808 H         1 <0>         0.0706
     44 H6          2.1667    1.4210    1.6489 H         1 <0>         0.1185
     45 H7          3.1507    0.5640    3.7371 H         1 <0>         0.1219
     46 H8          2.3332   -1.5459    4.7082 H         1 <0>         0.1213
     47 H9          0.5311   -2.7984    3.5915 H         1 <0>         0.1215
     48 H10        -0.4587   -1.9371    1.5079 H         1 <0>         0.1209
     49 H11         0.3508    2.6854   -1.6531 H         1 <0>         0.4026
     50 H12         0.3203    1.0630   -5.0342 H         1 <0>         0.0728
     51 H13         0.0773    2.7109   -5.6618 H         1 <0>         0.0633
     52 H14         1.4423    2.3655   -4.5729 H         1 <0>         0.0681
     53 H15        -2.4644    2.0081   -2.8992 H         1 <0>         0.0527
     54 H16        -2.2739    1.9494   -4.6680 H         1 <0>         0.0615
     55 H17        -1.6252    0.6344   -3.6589 H         1 <0>         0.0754
     56 H18        -1.3512    4.2476   -4.4079 H         1 <0>         0.0802
     57 H19        -1.2621    4.2131   -2.6305 H         1 <0>         0.0676
     58 H20         0.3613    4.9528   -5.7335 H         1 <0>         0.0537
     59 H21         1.9781    5.3715   -5.1180 H         1 <0>         0.0491
     60 H22         1.4933    3.6645   -5.2571 H         1 <0>         0.0836
     61 H23        -0.0206    6.1976   -2.1690 H         1 <0>         0.0532
     62 H24         1.3221    6.7042   -3.2219 H         1 <0>         0.0549
     63 H25        -0.3368    6.6397   -3.8639 H         1 <0>         0.0547
     64 H26         1.7238    3.0076   -2.9336 H         1 <0>         0.0856
     65 H27         2.5473    4.5698   -2.7107 H         1 <0>         0.0518
     66 H28         1.2091    4.1073   -1.6320 H         1 <0>         0.0487
     67 H29         3.1178   -1.4014    1.1774 H         1 <0>         0.1411
     68 H30         5.5391   -1.7790    1.4021 H         1 <0>         0.1343
     69 H31         6.9714   -1.8243   -0.5986 H         1 <0>         0.1356
     70 H32         5.9877   -1.4942   -2.8301 H         1 <0>         0.1368
     71 H33         2.7302   -3.4364    0.1723 H         1 <0>         0.1321
     72 H34         3.6639   -5.6623   -0.2738 H         1 <0>         0.1343
     73 H35         3.0325   -6.8876   -2.3111 H         1 <0>         0.1365
     74 H36         0.7354   -3.0148   -4.3594 H         1 <0>         0.3935
     75 H37         0.6116   -6.6025   -4.0452 H         1 <0>         0.3936
@<TRIPOS>BOND
     1    1    2 1
     2    1   41 1
     3    1   42 1
     4    1   43 1
     5    2    3 1
     6    2    4 1
     7    2   10 1
     8    4    9 ar
     9    4    5 ar
    10    5    6 ar
    11    5   44 1
    12    6    7 ar
    13    6   45 1
    14    7    8 ar
    15    7   46 1
    16    8    9 ar
    17    8   47 1
    18    9   48 1
    19   10   11 1
    20   10   12 1
    21   10   23 1
    22   12   13 2
    23   12   14 am
    24   14   15 1
    25   14   49 1
    26   15   16 1
    27   15   17 1
    28   15   18 1
    29   16   50 1
    30   16   51 1
    31   16   52 1
    32   17   53 1
    33   17   54 1
    34   17   55 1
    35   18   19 1
    36   18   56 1
    37   18   57 1
    38   19   20 1
    39   19   21 1
    40   19   22 1
    41   20   58 1
    42   20   59 1
    43   20   60 1
    44   21   61 1
    45   21   62 1
    46   21   63 1
    47   22   64 1
    48   22   65 1
    49   22   66 1
    50   23   24 1
    51   23   31 am
    52   24   29 ar
    53   24   25 ar
    54   25   26 ar
    55   25   67 1
    56   26   27 ar
    57   26   68 1
    58   27   28 ar
    59   27   69 1
    60   28   29 ar
    61   28   70 1
    62   29   30 1
    63   31   32 2
    64   31   33 1
    65   33   38 ar
    66   33   34 ar
    67   34   35 ar
    68   34   71 1
    69   35   36 ar
    70   35   72 1
    71   36   37 ar
    72   36   73 1
    73   37   38 ar
    74   37   40 1
    75   38   39 1
    76   39   74 1
    77   40   75 1
@<TRIPOS>MOLECULE
ZINC41026110
   63    68     0     0     0
SMALL
USER_CHARGES

@<TRIPOS>ATOM
      1 C1          1.9763    3.2483    1.7606 C.ar      1 <0>        -0.1218
      2 C2          3.1243    3.5164    1.0378 C.ar      1 <0>        -0.1032
      3 C3          3.9748    2.4876    0.6830 C.ar      1 <0>        -0.1136
      4 C4          3.6760    1.1828    1.0530 C.ar      1 <0>         0.1591
      5 C5          2.5223    0.9169    1.7788 C.ar      1 <0>        -0.1130
      6 C6          1.6760    1.9501    2.1305 C.ar      1 <0>        -0.1000
      7 N1          4.5361    0.1373    0.6944 N.pl3     1 <0>        -0.3350
      8 C7          4.7984   -0.9760    1.4414 C.ar      1 <0>         0.4191
      9 C8          5.7116   -1.7507    0.6992 C.ar      1 <0>        -0.3660
     10 C9          5.9689   -1.0506   -0.4998 C.2       1 <0>         0.1221
     11 N2          5.2711    0.0498   -0.4946 N.2       1 <0>        -0.2561
     12 C10         6.1556   -2.9702    1.2469 C.ar      1 <0>         0.5457
     13 N3          5.6943   -3.3352    2.4370 N.ar      1 <0>        -0.6236
     14 C11         4.8339   -2.5739    3.1027 C.ar      1 <0>         0.6469
     15 N4          4.3901   -1.4225    2.6271 N.ar      1 <0>        -0.6126
     16 N5          4.3845   -3.0015    4.3397 N.pl3     1 <0>        -0.5652
     17 C12         3.3114   -2.2784    5.0365 C.3       1 <0>         0.1111
     18 C13         2.1854   -3.2674    5.3623 C.3       1 <0>         0.1340
     19 N6          2.7723   -4.4530    6.0026 N.pl3     1 <0>        -0.6737
     20 C14         3.8454   -5.1760    5.3058 C.3       1 <0>         0.1338
     21 C15         4.9675   -4.1903    4.9774 C.3       1 <0>         0.1089
     22 C16         2.3184   -4.8847    7.2518 C.ar      1 <0>         0.1784
     23 C17         1.2774   -5.8001    7.3359 C.ar      1 <0>        -0.1122
     24 C18         0.8314   -6.2252    8.5720 C.ar      1 <0>        -0.1094
     25 C19         1.4198   -5.7404    9.7258 C.ar      1 <0>        -0.1105
     26 C20         2.4565   -4.8289    9.6466 C.ar      1 <0>        -0.1078
     27 C21         2.9117   -4.4035    8.4129 C.ar      1 <0>        -0.0436
     28 Cl1         4.2178   -3.2642    8.3139 Cl        1 <0>        -0.0627
     29 N7          7.0511   -3.7691    0.5604 N.pl3     1 <0>        -0.6407
     30 C22         7.5686   -4.9121    1.1637 C.ar      1 <0>         0.1813
     31 C23         6.7448   -5.7202    1.9421 C.ar      1 <0>        -0.1173
     32 C24         7.2534   -6.8505    2.5402 C.ar      1 <0>        -0.0402
     33 C25         8.5988   -7.1870    2.3649 C.ar      1 <0>        -0.1553
     34 C26         9.4233   -6.3737    1.5822 C.ar      1 <0>        -0.0659
     35 C27         8.9073   -5.2475    0.9825 C.ar      1 <0>        -0.1511
     36 C28         9.1475   -8.3979    3.0050 C.2       1 <0>         0.5641
     37 O1          8.4292   -9.1043    3.6859 O.2       1 <0>        -0.5399
     38 N8         10.4448   -8.7210    2.8351 N.am      1 <0>        -0.8524
     39 H1          1.3151    4.0550    2.0406 H         1 <0>         0.1285
     40 H2          3.3559    4.5312    0.7501 H         1 <0>         0.1315
     41 H3          4.8710    2.6976    0.1182 H         1 <0>         0.1315
     42 H4          2.2870   -0.0968    2.0677 H         1 <0>         0.1335
     43 H5          0.7788    1.7440    2.6953 H         1 <0>         0.1317
     44 H6          6.6292   -1.3751   -1.2905 H         1 <0>         0.1964
     45 H7          3.6995   -1.8488    5.9600 H         1 <0>         0.0716
     46 H8          2.9275   -1.4857    4.3943 H         1 <0>         0.1029
     47 H9          1.4729   -2.7997    6.0418 H         1 <0>         0.0817
     48 H10         1.6790   -3.5612    4.4428 H         1 <0>         0.0577
     49 H11         4.2292   -5.9688    5.9479 H         1 <0>         0.0828
     50 H12         3.4572   -5.6057    4.3823 H         1 <0>         0.0588
     51 H13         5.6772   -4.6599    4.2962 H         1 <0>         0.1056
     52 H14         5.4763   -3.8999    5.8966 H         1 <0>         0.0705
     53 H15         0.8167   -6.1789    6.4355 H         1 <0>         0.1307
     54 H16         0.0218   -6.9371    8.6376 H         1 <0>         0.1293
     55 H17         1.0684   -6.0741   10.6909 H         1 <0>         0.1316
     56 H18         2.9136   -4.4519   10.5497 H         1 <0>         0.1326
     57 H19         7.3188   -3.5332   -0.3416 H         1 <0>         0.4253
     58 H20         5.7054   -5.4596    2.0771 H         1 <0>         0.1460
     59 H21         6.6139   -7.4767    3.1446 H         1 <0>         0.1394
     60 H22        10.4632   -6.6310    1.4449 H         1 <0>         0.1298
     61 H23         9.5429   -4.6209    0.3744 H         1 <0>         0.1328
     62 H24        11.0179   -8.1575    2.2919 H         1 <0>         0.4003
     63 H25        10.8055   -9.5171    3.2559 H         1 <0>         0.4058
@<TRIPOS>BOND
     1    1    6 ar
     2    1    2 ar
     3    1   39 1
     4    2    3 ar
     5    2   40 1
     6    3    4 ar
     7    3   41 1
     8    4    5 ar
     9    4    7 1
    10    5    6 ar
    11    5   42 1
    12    6   43 1
    13    7   11 1
    14    7    8 1
    15    8   15 ar
    16    8    9 ar
    17    9   10 1
    18    9   12 ar
    19   10   11 2
    20   10   44 1
    21   12   13 ar
    22   12   29 1
    23   13   14 ar
    24   14   15 ar
    25   14   16 1
    26   16   21 1
    27   16   17 1
    28   17   18 1
    29   17   45 1
    30   17   46 1
    31   18   19 1
    32   18   47 1
    33   18   48 1
    34   19   20 1
    35   19   22 1
    36   20   21 1
    37   20   49 1
    38   20   50 1
    39   21   51 1
    40   21   52 1
    41   22   27 ar
    42   22   23 ar
    43   23   24 ar
    44   23   53 1
    45   24   25 ar
    46   24   54 1
    47   25   26 ar
    48   25   55 1
    49   26   27 ar
    50   26   56 1
    51   27   28 1
    52   29   30 1
    53   29   57 1
    54   30   35 ar
    55   30   31 ar
    56   31   32 ar
    57   31   58 1
    58   32   33 ar
    59   32   59 1
    60   33   34 ar
    61   33   36 1
    62   34   35 ar
    63   34   60 1
    64   35   61 1
    65   36   37 2
    66   36   38 am
    67   38   62 1
    68   38   63 1
@<TRIPOS>MOLECULE
ZINC24303449
   75    78     0     0     0
SMALL
USER_CHARGES
(5R)-4-(4-allyloxy-2-methyl-benzoyl)-3-hydroxy-5-(4-isopropylphenyl)-1-(3-morpholinopropyl)-5H-pyrrol-2-one
@<TRIPOS>ATOM
      1 C1          1.1307   -4.9610   -2.8085 C.3       1 <0>        -0.1231
      2 C2         -0.1578   -5.3856   -3.4646 C.ar      1 <0>        -0.0221
      3 C3         -0.2369   -5.4729   -4.8363 C.ar      1 <0>        -0.1557
      4 C4         -1.4268   -5.8590   -5.4428 C.ar      1 <0>         0.1268
      5 C5         -2.5402   -6.1638   -4.6672 C.ar      1 <0>        -0.2087
      6 C6         -2.4682   -6.0842   -3.2951 C.ar      1 <0>        -0.0423
      7 C7         -1.2732   -5.6963   -2.6809 C.ar      1 <0>        -0.1351
      8 C8         -1.1915   -5.6091   -1.2097 C.2       1 <0>         0.4665
      9 O1         -1.1056   -6.6241   -0.5438 O.2       1 <0>        -0.4887
     10 C9         -1.2138   -4.2994   -0.5504 C.2       1 <0>        -0.4752
     11 C10        -1.2019   -4.0666    0.7826 C.2       1 <0>         0.2788
     12 C11        -1.2333   -2.6083    1.0211 C.2       1 <0>         0.5078
     13 O2         -1.2311   -2.0806    2.1155 O.2       1 <0>        -0.5351
     14 N1         -1.2641   -1.9516   -0.1527 N.am      1 <0>        -0.6065
     15 C12        -1.2604   -2.9500   -1.2284 C.3       1 <0>         0.2539
     16 H1         -0.3964   -2.7884   -1.8898 H         1 <0>         0.0679
     17 C13        -2.5142   -2.8255   -2.0552 C.ar      1 <0>        -0.0714
     18 C14        -3.7471   -2.7524   -1.4344 C.ar      1 <0>        -0.0916
     19 C15        -4.8968   -2.6333   -2.1927 C.ar      1 <0>        -0.1185
     20 C16        -4.8143   -2.5974   -3.5721 C.ar      1 <0>        -0.0873
     21 C17        -3.5818   -2.6762   -4.1931 C.ar      1 <0>        -0.1162
     22 C18        -2.4317   -2.7900   -3.4347 C.ar      1 <0>        -0.0992
     23 C19        -6.0681   -2.4728   -4.3989 C.3       1 <0>        -0.0525
     24 C20        -6.9872   -3.6624   -4.1140 C.3       1 <0>        -0.1439
     25 C21        -6.7898   -1.1729   -4.0382 C.3       1 <0>        -0.1433
     26 C22        -1.3011   -0.4974   -0.3263 C.3       1 <0>         0.1379
     27 C23         0.1279    0.0433   -0.4059 C.3       1 <0>        -0.1336
     28 C24         0.0892    1.5620   -0.5872 C.3       1 <0>         0.0595
     29 N2          1.4613    2.0812   -0.6636 N.3       1 <0>        -0.5348
     30 C25         2.1629    1.9061    0.6164 C.3       1 <0>         0.0119
     31 C26         3.6036    2.4045    0.4749 C.3       1 <0>         0.0624
     32 O3          3.5908    3.7690    0.0467 O.3       1 <0>        -0.3878
     33 C27         2.9160    3.9757   -1.1972 C.3       1 <0>         0.0625
     34 C28         1.4683    3.4932   -1.0727 C.3       1 <0>         0.0165
     35 O4         -1.1663   -5.0177    1.7442 O.3       1 <0>        -0.6101
     36 O5         -1.5022   -5.9383   -6.7954 O.3       1 <0>        -0.3135
     37 C29        -2.7549   -6.3409   -7.3528 C.3       1 <0>         0.0860
     38 C30        -2.6492   -6.3716   -8.8558 C.2       1 <0>        -0.1548
     39 C31        -3.1367   -7.3860   -9.5261 C.2       1 <0>        -0.1799
     40 H2          1.8871   -4.7605   -3.5816 H         1 <0>         0.0632
     41 H3          1.4870   -5.7640   -2.1464 H         1 <0>         0.0741
     42 H4          0.9585   -4.0487   -2.2186 H         1 <0>         0.0824
     43 H5          0.6255   -5.2371   -5.4422 H         1 <0>         0.1263
     44 H6         -3.4628   -6.4630   -5.1423 H         1 <0>         0.1207
     45 H7         -3.3331   -6.3214   -2.6935 H         1 <0>         0.1193
     46 H8         -3.8118   -2.7846   -0.3568 H         1 <0>         0.1129
     47 H9         -5.8597   -2.5722   -1.7075 H         1 <0>         0.1119
     48 H10        -3.5174   -2.6485   -5.2708 H         1 <0>         0.1100
     49 H11        -1.4688   -2.8516   -3.9199 H         1 <0>         0.1148
     50 H12        -5.7885   -2.4625   -5.4627 H         1 <0>         0.0716
     51 H13        -7.9024   -3.5714   -4.7175 H         1 <0>         0.0527
     52 H14        -7.2517   -3.6739   -3.0463 H         1 <0>         0.0571
     53 H15        -6.4683   -4.5970   -4.3734 H         1 <0>         0.0553
     54 H16        -7.7050   -1.0820   -4.6417 H         1 <0>         0.0528
     55 H17        -6.1290   -0.3177   -4.2430 H         1 <0>         0.0543
     56 H18        -7.0543   -1.1845   -2.9705 H         1 <0>         0.0565
     57 H19        -1.8380   -0.2525   -1.2546 H         1 <0>         0.0759
     58 H20        -1.8194   -0.0391    0.5289 H         1 <0>         0.0752
     59 H21         0.6648   -0.2016    0.5224 H         1 <0>         0.0682
     60 H22         0.6463   -0.4150   -1.2611 H         1 <0>         0.0757
     61 H23        -0.4477    1.8069   -1.5155 H         1 <0>         0.0775
     62 H24        -0.4292    2.0203    0.2679 H         1 <0>         0.0364
     63 H25         1.6483    2.4835    1.3986 H         1 <0>         0.0427
     64 H26         2.1666    0.8406    0.8898 H         1 <0>         0.0935
     65 H27         4.1152    2.3276    1.4457 H         1 <0>         0.0989
     66 H28         4.1329    1.7899   -0.2682 H         1 <0>         0.0609
     67 H29         2.9273    5.0469   -1.4469 H         1 <0>         0.0966
     68 H30         3.4265    3.4091   -1.9899 H         1 <0>         0.0598
     69 H31         0.9607    3.5963   -2.0431 H         1 <0>         0.0860
     70 H32         0.9424    4.0963   -0.3179 H         1 <0>         0.0412
     71 H33        -3.0155   -7.3436   -6.9830 H         1 <0>         0.0659
     72 H34        -3.5357   -5.6258   -7.0546 H         1 <0>         0.0718
     73 H35        -2.1627   -5.5422   -9.3900 H         1 <0>         0.1208
     74 H36        -3.0595   -7.4084  -10.6232 H         1 <0>         0.1083
     75 H37        -3.6232   -8.2154   -8.9919 H         1 <0>         0.1012
@<TRIPOS>BOND
     1    1    2 1
     2    1   40 1
     3    1   41 1
     4    1   42 1
     5    2    7 ar
     6    2    3 ar
     7    3    4 ar
     8    3   43 1
     9    4    5 ar
    10    4   36 1
    11    5    6 ar
    12    5   44 1
    13    6    7 ar
    14    6   45 1
    15    7    8 1
    16    8    9 2
    17    8   10 1
    18   10   15 1
    19   10   11 2
    20   11   12 1
    21   11   35 1
    22   12   13 2
    23   12   14 am
    24   14   15 1
    25   14   26 1
    26   15   16 1
    27   15   17 1
    28   17   22 ar
    29   17   18 ar
    30   18   19 ar
    31   18   46 1
    32   19   20 ar
    33   19   47 1
    34   20   21 ar
    35   20   23 1
    36   21   22 ar
    37   21   48 1
    38   22   49 1
    39   23   24 1
    40   23   25 1
    41   23   50 1
    42   24   51 1
    43   24   52 1
    44   24   53 1
    45   25   54 1
    46   25   55 1
    47   25   56 1
    48   26   27 1
    49   26   57 1
    50   26   58 1
    51   27   28 1
    52   27   59 1
    53   27   60 1
    54   28   29 1
    55   28   61 1
    56   28   62 1
    57   29   34 1
    58   29   30 1
    59   30   31 1
    60   30   63 1
    61   30   64 1
    62   31   32 1
    63   31   65 1
    64   31   66 1
    65   32   33 1
    66   33   34 1
    67   33   67 1
    68   33   68 1
    69   34   69 1
    70   34   70 1
    71   36   37 1
    72   37   38 1
    73   37   71 1
    74   37   72 1
    75   38   39 2
    76   38   73 1
    77   39   74 1
    78   39   75 1
@<TRIPOS>MOLECULE
ZINC34932053
   67    70     0     0     0
SMALL
USER_CHARGES

@<TRIPOS>ATOM
      1 C1         -4.1628    2.3717   -4.1574 C.3       1 <0>        -0.1499
      2 C2         -4.1729    0.8790   -4.4930 C.3       1 <0>        -0.1235
      3 C3         -4.7476    0.0946   -3.3117 C.3       1 <0>         0.0569
      4 O1         -4.7570   -1.2996   -3.6252 O.3       1 <0>        -0.3156
      5 C4         -5.2399   -2.1411   -2.6765 C.ar      1 <0>         0.1444
      6 C5         -5.7017   -1.6315   -1.4680 C.ar      1 <0>        -0.2238
      7 C6         -6.1925   -2.4817   -0.5029 C.ar      1 <0>        -0.0302
      8 C7         -6.2266   -3.8593   -0.7394 C.ar      1 <0>        -0.1754
      9 C8         -5.7616   -4.3675   -1.9562 C.ar      1 <0>        -0.0261
     10 C9         -5.2770   -3.5099   -2.9179 C.ar      1 <0>        -0.1663
     11 C10        -6.7515   -4.7748    0.2928 C.2       1 <0>         0.5097
     12 C11        -6.6743   -6.2250    0.0940 C.2       1 <0>        -0.4805
     13 C12        -5.4160   -7.0560   -0.0012 C.3       1 <0>         0.2662
     14 H1         -4.8141   -6.7290   -0.8491 H         1 <0>         0.0916
     15 N1         -5.8556   -8.4422   -0.1991 N.am      1 <0>        -0.4983
     16 C13        -7.2007   -8.4505   -0.2209 C.2       1 <0>         0.5114
     17 O2         -7.8896   -9.4408   -0.3680 O.2       1 <0>        -0.4851
     18 C14        -7.7169   -7.0794   -0.0338 C.2       1 <0>         0.2714
     19 O3         -9.0241   -6.7320    0.0018 O.3       1 <0>        -0.6332
     20 C15        -5.0292   -9.5493   -0.3395 C.2       1 <0>         0.3315
     21 N2         -3.7057   -9.6336   -0.3254 N.2       1 <0>        -0.3185
     22 N3         -3.1078  -10.7347   -0.4694 N.2       1 <0>        -0.2525
     23 C16        -3.7574  -11.8689   -0.6427 C.2       1 <0>         0.0181
     24 S1         -5.4451  -11.2738   -0.5837 S.3       1 <0>         0.0060
     25 C17        -3.2300  -13.2681   -0.8303 C.3       1 <0>        -0.0483
     26 C18        -4.6214   -6.9413    1.2741 C.ar      1 <0>        -0.0315
     27 C19        -5.0462   -7.5988    2.4142 C.ar      1 <0>        -0.1280
     28 C20        -4.3195   -7.4957    3.5857 C.ar      1 <0>        -0.0808
     29 C21        -3.1669   -6.7346    3.6203 C.ar      1 <0>        -0.2102
     30 C22        -2.7387   -6.0741    2.4782 C.ar      1 <0>         0.1291
     31 C23        -3.4665   -6.1842    1.3019 C.ar      1 <0>        -0.1283
     32 O4         -1.6053   -5.3250    2.5096 O.3       1 <0>        -0.3155
     33 C24        -0.9038   -5.2616    3.7530 C.3       1 <0>         0.0591
     34 C25         0.3360   -4.3792    3.5947 C.3       1 <0>        -0.1144
     35 C26         1.0870   -4.3114    4.9260 C.3       1 <0>        -0.0936
     36 C27         2.3906   -3.5330    4.7371 C.3       1 <0>        -0.1462
     37 C28         0.2170   -3.6041    5.9670 C.3       1 <0>        -0.1535
     38 O5         -7.2484   -4.3254    1.3089 O.2       1 <0>        -0.4686
     39 H2         -3.7534    2.9306   -4.9989 H         1 <0>         0.0630
     40 H3         -5.1812    2.7066   -3.9598 H         1 <0>         0.0575
     41 H4         -3.5468    2.5415   -3.2743 H         1 <0>         0.0575
     42 H5         -4.7889    0.7093   -5.3760 H         1 <0>         0.0729
     43 H6         -3.1546    0.5442   -4.6905 H         1 <0>         0.0729
     44 H7         -4.1316    0.2643   -2.4287 H         1 <0>         0.0624
     45 H8         -5.7659    0.4294   -3.1142 H         1 <0>         0.0623
     46 H9         -5.6750   -0.5673   -1.2861 H         1 <0>         0.1268
     47 H10        -6.5503   -2.0852    0.4358 H         1 <0>         0.1325
     48 H11        -5.7862   -5.4310   -2.1429 H         1 <0>         0.1389
     49 H12        -4.9211   -3.9013   -3.8595 H         1 <0>         0.1317
     50 H13        -3.1233  -13.7495    0.1417 H         1 <0>         0.0878
     51 H14        -3.9261  -13.8395   -1.4443 H         1 <0>         0.0847
     52 H15        -2.2591  -13.2272   -1.3241 H         1 <0>         0.0938
     53 H16        -5.9473   -8.1936    2.3893 H         1 <0>         0.1123
     54 H17        -4.6533   -8.0101    4.4747 H         1 <0>         0.1199
     55 H18        -2.5999   -6.6537    4.5360 H         1 <0>         0.1213
     56 H19        -3.1327   -5.6748    0.4101 H         1 <0>         0.1292
     57 H20        -1.5560   -4.8384    4.5170 H         1 <0>         0.0616
     58 H21        -0.5998   -6.2653    4.0502 H         1 <0>         0.0581
     59 H22         0.9881   -4.8025    2.8308 H         1 <0>         0.0736
     60 H23         0.0320   -3.3755    3.2975 H         1 <0>         0.0738
     61 H24         1.3133   -5.3215    5.2674 H         1 <0>         0.0718
     62 H25         2.1644   -2.5228    4.3957 H         1 <0>         0.0559
     63 H26         2.9257   -3.4847    5.6855 H         1 <0>         0.0555
     64 H27         3.0104   -4.0368    3.9954 H         1 <0>         0.0558
     65 H28        -0.0093   -2.5940    5.6256 H         1 <0>         0.0571
     66 H29        -0.7117   -4.1587    6.1016 H         1 <0>         0.0567
     67 H30         0.7520   -3.5558    6.9154 H         1 <0>         0.0551
@<TRIPOS>BOND
     1    1    2 1
     2    1   39 1
     3    1   40 1
     4    1   41 1
     5    2    3 1
     6    2   42 1
     7    2   43 1
     8    3    4 1
     9    3   44 1
    10    3   45 1
    11    4    5 1
    12    5   10 ar
    13    5    6 ar
    14    6    7 ar
    15    6   46 1
    16    7    8 ar
    17    7   47 1
    18    8    9 ar
    19    8   11 1
    20    9   10 ar
    21    9   48 1
    22   10   49 1
    23   11   12 1
    24   11   38 2
    25   12   18 2
    26   12   13 1
    27   13   15 1
    28   13   26 1
    29   13   14 1
    30   15   20 1
    31   15   16 am
    32   16   17 2
    33   16   18 1
    34   18   19 1
    35   20   24 1
    36   20   21 2
    37   21   22 1
    38   22   23 2
    39   23   24 1
    40   23   25 1
    41   25   50 1
    42   25   51 1
    43   25   52 1
    44   26   31 ar
    45   26   27 ar
    46   27   28 ar
    47   27   53 1
    48   28   29 ar
    49   28   54 1
    50   29   30 ar
    51   29   55 1
    52   30   31 ar
    53   30   32 1
    54   31   56 1
    55   32   33 1
    56   33   34 1
    57   33   57 1
    58   33   58 1
    59   34   35 1
    60   34   59 1
    61   34   60 1
    62   35   36 1
    63   35   37 1
    64   35   61 1
    65   36   62 1
    66   36   63 1
    67   36   64 1
    68   37   65 1
    69   37   66 1
    70   37   67 1
@<TRIPOS>MOLECULE
ZINC35694562
   65    68     0     0     0
SMALL
USER_CHARGES

@<TRIPOS>ATOM
      1 C1          2.1828  -10.2129    7.2396 C.3       1 <0>        -0.1523
      2 C2          2.1136   -9.7482    5.7835 C.3       1 <0>         0.0590
      3 O1          2.9494   -8.6023    5.6090 O.3       1 <0>        -0.3465
      4 C3          3.0011   -8.0674    4.3790 C.2       1 <0>         0.4724
      5 O2          2.3581   -8.5559    3.4802 O.2       1 <0>        -0.5137
      6 C4          3.8612   -6.8575    4.1190 C.3       1 <0>        -0.0964
      7 H1          4.9005   -7.0943    4.3468 H         1 <0>         0.1122
      8 C5          3.7403   -6.4514    2.6484 C.3       1 <0>        -0.0974
      9 C6          4.6387   -5.2428    2.3757 C.3       1 <0>        -0.1340
     10 C7          4.1805   -4.0652    3.2418 C.3       1 <0>         0.1325
     11 N1          4.1551   -4.4934    4.6471 N.pl3     1 <0>        -0.6391
     12 C8          3.3947   -5.6985    5.0054 C.3       1 <0>         0.1482
     13 C9          4.8355   -3.7752    5.6158 C.2       1 <0>         0.5037
     14 O3          5.3160   -4.4062    6.7148 O.3       1 <0>        -0.6965
     15 C10         5.0197   -2.4494    5.4661 C.2       1 <0>        -0.4586
     16 C11         5.8582   -1.7113    6.4216 C.2       1 <0>         0.2284
     17 C12         6.5781   -2.3573    7.3652 C.2       1 <0>        -0.2977
     18 S1          7.3746   -1.0061    8.2104 S.3       1 <0>         0.1491
     19 C13         6.7432    0.2653    7.3150 C.2       1 <0>         0.3205
     20 N2          6.9193    1.5676    7.4047 N.2       1 <0>        -0.5945
     21 C14         6.3465    2.4628    6.6167 C.2       1 <0>         0.3029
     22 C15         5.4913    2.0625    5.6080 C.2       1 <0>        -0.3920
     23 C16         5.2399    0.5802    5.4434 C.3       1 <0>         0.2604
     24 H2          4.1680    0.4088    5.5416 H         1 <0>         0.0771
     25 N3          5.9425   -0.3337    6.3831 N.pl3     1 <0>        -0.5136
     26 C17         5.6407    0.1944    4.0429 C.ar      1 <0>        -0.0434
     27 C18         6.9788    0.1202    3.7027 C.ar      1 <0>        -0.1036
     28 C19         7.3479   -0.2336    2.4185 C.ar      1 <0>        -0.0939
     29 C20         6.3795   -0.5132    1.4727 C.ar      1 <0>        -0.1558
     30 C21         5.0394   -0.4392    1.8122 C.ar      1 <0>         0.0918
     31 C22         4.6709   -0.0906    3.1008 C.ar      1 <0>        -0.1088
     32 F1          4.0920   -0.7118    0.8885 F         1 <0>        -0.1441
     33 C23         4.8774    2.9981    4.7664 C.2       1 <0>         0.5358
     34 O4          5.0940    4.1879    4.9173 O.2       1 <0>        -0.5489
     35 O5          4.0447    2.5817    3.7868 O.3       1 <0>        -0.3556
     36 C24         3.4533    3.5907    2.9657 C.3       1 <0>         0.0670
     37 C25         2.5488    2.9331    1.9215 C.3       1 <0>        -0.1506
     38 C26         6.6285    3.9290    6.8209 C.3       1 <0>        -0.0923
     39 H3          1.8408   -9.4108    7.8936 H         1 <0>         0.0684
     40 H4          1.5453  -11.0869    7.3727 H         1 <0>         0.0760
     41 H5          3.2116  -10.4720    7.4898 H         1 <0>         0.0670
     42 H6          2.4556  -10.5503    5.1295 H         1 <0>         0.0640
     43 H7          1.0848   -9.4890    5.5333 H         1 <0>         0.0650
     44 H8          4.0488   -7.2833    2.0153 H         1 <0>         0.0668
     45 H9          2.7051   -6.1915    2.4274 H         1 <0>         0.0688
     46 H10         5.6708   -5.4942    2.6201 H         1 <0>         0.0669
     47 H11         4.5700   -4.9685    1.3230 H         1 <0>         0.0720
     48 H12         4.8758   -3.2339    3.1257 H         1 <0>         0.0812
     49 H13         3.1814   -3.7541    2.9366 H         1 <0>         0.0462
     50 H14         2.3314   -5.5204    4.8445 H         1 <0>         0.0466
     51 H15         3.5716   -5.9450    6.0523 H         1 <0>         0.0973
     52 H16         4.5514   -1.9286    4.6439 H         1 <0>         0.0956
     53 H17         6.6515   -3.4175    7.5572 H         1 <0>         0.2329
     54 H18         7.7362    0.3391    4.4408 H         1 <0>         0.1125
     55 H19         8.3934   -0.2913    2.1539 H         1 <0>         0.1264
     56 H20         6.6681   -0.7889    0.4692 H         1 <0>         0.1288
     57 H21         3.6259   -0.0369    3.3680 H         1 <0>         0.1314
     58 H22         2.8619    4.2638    3.5864 H         1 <0>         0.0588
     59 H23         4.2380    4.1558    2.4626 H         1 <0>         0.0584
     60 H24         3.1403    2.2600    1.3007 H         1 <0>         0.0638
     61 H25         1.7642    2.3681    2.4246 H         1 <0>         0.0634
     62 H26         2.0977    3.7028    1.2951 H         1 <0>         0.0720
     63 H27         7.3190    4.0535    7.6551 H         1 <0>         0.0646
     64 H28         7.0734    4.3430    5.9161 H         1 <0>         0.0865
     65 H29         5.6969    4.4511    7.0394 H         1 <0>         0.0869
@<TRIPOS>BOND
     1    1    2 1
     2    1   39 1
     3    1   40 1
     4    1   41 1
     5    2    3 1
     6    2   42 1
     7    2   43 1
     8    3    4 1
     9    4    5 2
    10    4    6 1
    11    6    7 1
    12    6   12 1
    13    6    8 1
    14    8    9 1
    15    8   44 1
    16    8   45 1
    17    9   10 1
    18    9   46 1
    19    9   47 1
    20   10   11 1
    21   10   48 1
    22   10   49 1
    23   11   12 1
    24   11   13 1
    25   12   50 1
    26   12   51 1
    27   13   14 1
    28   13   15 2
    29   15   16 1
    30   15   52 1
    31   16   25 1
    32   16   17 2
    33   17   18 1
    34   17   53 1
    35   18   19 1
    36   19   25 1
    37   19   20 2
    38   20   21 1
    39   21   22 2
    40   21   38 1
    41   22   23 1
    42   22   33 1
    43   23   24 1
    44   23   25 1
    45   23   26 1
    46   26   31 ar
    47   26   27 ar
    48   27   28 ar
    49   27   54 1
    50   28   29 ar
    51   28   55 1
    52   29   30 ar
    53   29   56 1
    54   30   31 ar
    55   30   32 1
    56   31   57 1
    57   33   34 2
    58   33   35 1
    59   35   36 1
    60   36   37 1
    61   36   58 1
    62   36   59 1
    63   37   60 1
    64   37   61 1
    65   37   62 1
    66   38   63 1
    67   38   64 1
    68   38   65 1
@<TRIPOS>MOLECULE
ZINC39997852
   64    67     0     0     0
SMALL
USER_CHARGES

@<TRIPOS>ATOM
      1 C1         -1.2634    1.3406    0.4885 C.3       1 <0>        -0.1492
      2 C2         -1.1528   -0.1822    0.3891 C.3       1 <0>        -0.1202
      3 C3          0.0181   -0.5499   -0.5245 C.3       1 <0>         0.0001
      4 C4          0.1272   -2.0497   -0.6223 C.2       1 <0>        -0.0266
      5 N1         -0.4278   -2.8849   -1.4794 N.2       1 <0>        -0.2498
      6 N2         -0.2341   -4.1301   -1.4267 N.2       1 <0>        -0.3517
      7 C5          0.5477   -4.6767   -0.4958 C.2       1 <0>         0.3717
      8 S1          1.0530   -3.2030    0.3869 S.3       1 <0>        -0.1472
      9 N3          0.8720   -5.9784   -0.2810 N.2       1 <0>        -0.6078
     10 C6          0.3850   -6.9155   -1.0654 C.2       1 <0>         0.4710
     11 O1         -0.4384   -6.5832   -2.0855 O.3       1 <0>        -0.6285
     12 C7          0.7356   -8.3227   -0.8333 C.2       1 <0>        -0.0597
     13 C8          0.2247   -9.3059   -1.6561 C.2       1 <0>         0.0607
     14 C9          0.6875  -10.6859   -1.5205 C.2       1 <0>        -0.2120
     15 C10         1.8323  -11.1190   -0.8702 C.2       1 <0>         0.0815
     16 N4          1.8842  -12.4579   -0.9795 N.pl3     1 <0>        -0.3111
     17 N5          0.7780  -12.9160   -1.7001 N.2       1 <0>        -0.2794
     18 C11         0.0288  -11.8920   -2.0408 C.2       1 <0>         0.1663
     19 C12        -1.2381  -11.9431   -2.8072 C.ar      1 <0>        -0.0560
     20 C13        -2.2632  -11.0402   -2.5243 C.ar      1 <0>        -0.0487
     21 C14        -3.4405  -11.0903   -3.2396 C.ar      1 <0>        -0.2007
     22 C15        -3.6068  -12.0382   -4.2408 C.ar      1 <0>         0.1434
     23 C16        -2.5889  -12.9386   -4.5246 C.ar      1 <0>        -0.1224
     24 C17        -1.4064  -12.8903   -3.8168 C.ar      1 <0>        -0.0476
     25 C18        -2.7742  -13.9661   -5.6113 C.3       1 <0>        -0.1020
     26 O2         -4.7685  -12.0848   -4.9439 O.3       1 <0>        -0.3118
     27 C19        -5.7739  -11.1295   -4.5997 C.3       1 <0>         0.0539
     28 C20        -6.9998  -11.3354   -5.4917 C.3       1 <0>        -0.1216
     29 C21        -8.0763  -10.3125   -5.1232 C.3       1 <0>        -0.1514
     30 C22         2.8948  -13.2710   -0.4512 C.ar      1 <0>         0.1574
     31 C23         3.9473  -12.7029    0.2546 C.ar      1 <0>        -0.1380
     32 C24         4.9420  -13.5075    0.7748 C.ar      1 <0>        -0.0902
     33 C25         4.8909  -14.8774    0.5934 C.ar      1 <0>        -0.1300
     34 C26         3.8445  -15.4462   -0.1094 C.ar      1 <0>        -0.0977
     35 C27         2.8436  -14.6476   -0.6271 C.ar      1 <0>        -0.1177
     36 C28         1.6074   -8.6746    0.2469 C.1       1 <0>         0.2868
     37 N6          2.2990   -8.9538    1.1037 N.1       1 <0>        -0.4467
     38 H1         -0.3395    1.7459    0.9010 H         1 <0>         0.0531
     39 H2         -1.4320    1.7582   -0.5042 H         1 <0>         0.0546
     40 H3         -2.0976    1.6026    1.1393 H         1 <0>         0.0527
     41 H4         -0.9842   -0.5997    1.3818 H         1 <0>         0.0625
     42 H5         -2.0767   -0.5875   -0.0234 H         1 <0>         0.0666
     43 H6         -0.1505   -0.1323   -1.5171 H         1 <0>         0.0866
     44 H7          0.9421   -0.1446   -0.1119 H         1 <0>         0.0766
     45 H8         -0.5170   -9.0557   -2.4003 H         1 <0>         0.1637
     46 H9          2.5536  -10.4929   -0.3662 H         1 <0>         0.1891
     47 H10        -2.1346  -10.3030   -1.7456 H         1 <0>         0.1368
     48 H11        -4.2347  -10.3918   -3.0209 H         1 <0>         0.1356
     49 H12        -0.6132  -13.5882   -4.0411 H         1 <0>         0.1333
     50 H13        -2.4294  -13.5569   -6.5609 H         1 <0>         0.0677
     51 H14        -2.1973  -14.8588   -5.3695 H         1 <0>         0.0639
     52 H15        -3.8299  -14.2259   -5.6895 H         1 <0>         0.0694
     53 H16        -6.0580  -11.2611   -3.5557 H         1 <0>         0.0635
     54 H17        -5.3833  -10.1224   -4.7458 H         1 <0>         0.0672
     55 H18        -6.7157  -11.2038   -6.5358 H         1 <0>         0.0731
     56 H19        -7.3903  -12.3425   -5.3456 H         1 <0>         0.0714
     57 H20        -8.3604  -10.4442   -4.0792 H         1 <0>         0.0577
     58 H21        -7.6857   -9.3055   -5.2693 H         1 <0>         0.0600
     59 H22        -8.9496  -10.4593   -5.7587 H         1 <0>         0.0631
     60 H23         3.9880  -11.6330    0.3964 H         1 <0>         0.1317
     61 H24         5.7610  -13.0662    1.3235 H         1 <0>         0.1339
     62 H25         5.6700  -15.5044    1.0011 H         1 <0>         0.1283
     63 H26         3.8077  -16.5164   -0.2500 H         1 <0>         0.1317
     64 H27         2.0241  -15.0929   -1.1717 H         1 <0>         0.1389
@<TRIPOS>BOND
     1    1    2 1
     2    1   38 1
     3    1   39 1
     4    1   40 1
     5    2    3 1
     6    2   41 1
     7    2   42 1
     8    3    4 1
     9    3   43 1
    10    3   44 1
    11    4    8 1
    12    4    5 2
    13    5    6 1
    14    6    7 2
    15    7    8 1
    16    7    9 1
    17    9   10 2
    18   10   11 1
    19   10   12 1
    20   12   13 2
    21   12   36 1
    22   13   14 1
    23   13   45 1
    24   14   18 1
    25   14   15 2
    26   15   16 1
    27   15   46 1
    28   16   17 1
    29   16   30 1
    30   17   18 2
    31   18   19 1
    32   19   24 ar
    33   19   20 ar
    34   20   21 ar
    35   20   47 1
    36   21   22 ar
    37   21   48 1
    38   22   23 ar
    39   22   26 1
    40   23   24 ar
    41   23   25 1
    42   24   49 1
    43   25   50 1
    44   25   51 1
    45   25   52 1
    46   26   27 1
    47   27   28 1
    48   27   53 1
    49   27   54 1
    50   28   29 1
    51   28   55 1
    52   28   56 1
    53   29   57 1
    54   29   58 1
    55   29   59 1
    56   30   35 ar
    57   30   31 ar
    58   31   32 ar
    59   31   60 1
    60   32   33 ar
    61   32   61 1
    62   33   34 ar
    63   33   62 1
    64   34   35 ar
    65   34   63 1
    66   35   64 1
    67   36   37 3
@<TRIPOS>MOLECULE
ZINC40004014
   68    72     0     0     0
SMALL
USER_CHARGES

@<TRIPOS>ATOM
      1 C1         -3.1566   -5.9275   -1.7619 C.3       1 <0>        -0.0993
      2 C2         -1.8668   -5.5033   -1.1080 C.2       1 <0>        -0.0585
      3 C3         -0.7686   -5.2261   -1.8680 C.2       1 <0>        -0.1033
      4 C4          0.4231   -4.8330   -1.2449 C.2       1 <0>        -0.1550
      5 C5          0.4822   -4.7295    0.1032 C.2       1 <0>         0.0751
      6 N1         -0.6079   -5.0046    0.8674 N.pl3     1 <0>        -0.3281
      7 C6         -1.7862   -5.3842    0.2899 C.2       1 <0>         0.2344
      8 N2         -2.6875   -5.5842    1.2520 N.2       1 <0>        -0.5034
      9 C7         -2.1444   -5.3441    2.4327 C.2       1 <0>         0.1635
     10 C8         -0.8183   -4.9812    2.2343 C.2       1 <0>        -0.1379
     11 C9          0.1267   -4.6385    3.2330 C.2       1 <0>         0.5467
     12 O1          1.2310   -4.2313    2.9135 O.2       1 <0>        -0.5006
     13 C10        -0.2236   -4.7738    4.6524 C.2       1 <0>        -0.4900
     14 C11        -0.2710   -5.9216    5.3656 C.2       1 <0>         0.2634
     15 C12        -0.6649   -5.6155    6.7540 C.2       1 <0>         0.5137
     16 O2         -0.7952   -6.4380    7.6392 O.2       1 <0>        -0.5255
     17 N3         -0.8586   -4.2917    6.8961 N.am      1 <0>        -0.6096
     18 C13        -0.5942   -3.6564    5.5996 C.3       1 <0>         0.2638
     19 H1         -1.4895   -3.1457    5.2450 H         1 <0>         0.0750
     20 C14         0.5469   -2.6796    5.7209 C.ar      1 <0>        -0.0304
     21 C15         1.7186   -3.0606    6.3490 C.ar      1 <0>        -0.0986
     22 C16         2.7672   -2.1669    6.4619 C.ar      1 <0>        -0.0772
     23 C17         2.6468   -0.8902    5.9475 C.ar      1 <0>        -0.2114
     24 C18         1.4727   -0.5057    5.3170 C.ar      1 <0>         0.1212
     25 C19         0.4239   -1.4065    5.1996 C.ar      1 <0>        -0.1462
     26 O3          1.3518    0.7495    4.8102 O.3       1 <0>        -0.3195
     27 C20         2.4738    1.6213    4.9621 C.3       1 <0>         0.0608
     28 C21         2.1532    2.9793    4.3345 C.3       1 <0>        -0.1142
     29 C22         3.3545    3.9127    4.4971 C.3       1 <0>        -0.0939
     30 C23         3.0826    5.2267    3.7621 C.3       1 <0>        -0.1463
     31 C24         3.5818    4.1972    5.9832 C.3       1 <0>        -0.1526
     32 C25        -1.2572   -3.6055    8.1275 C.3       1 <0>         0.2138
     33 C26        -0.0269   -3.2074    8.9015 C.2       1 <0>        -0.0290
     34 C27         0.6335   -2.0415    8.7836 C.2       1 <0>        -0.1796
     35 C28         1.7175   -2.0914    9.6900 C.2       1 <0>        -0.2120
     36 C29         1.6546   -3.2847   10.3075 C.2       1 <0>        -0.0453
     37 O4          0.5926   -3.9541    9.8301 O.3       1 <0>        -0.1661
     38 O5         -0.0003   -7.1574    4.8815 O.3       1 <0>        -0.6564
     39 C30        -2.8397   -5.4579    3.7649 C.3       1 <0>        -0.0822
     40 H2         -3.7571   -5.0460   -1.9867 H         1 <0>         0.0730
     41 H3         -2.9368   -6.4626   -2.6857 H         1 <0>         0.0687
     42 H4         -3.7088   -6.5807   -1.0862 H         1 <0>         0.0777
     43 H5         -0.8173   -5.3094   -2.9437 H         1 <0>         0.1398
     44 H6          1.2960   -4.6125   -1.8413 H         1 <0>         0.1497
     45 H7          1.4043   -4.4259    0.5764 H         1 <0>         0.1717
     46 H8          1.8144   -4.0578    6.7524 H         1 <0>         0.1106
     47 H9          3.6812   -2.4668    6.9529 H         1 <0>         0.1134
     48 H10         3.4661   -0.1922    6.0366 H         1 <0>         0.1163
     49 H11        -0.4896   -1.1110    4.7050 H         1 <0>         0.1225
     50 H12         2.6906    1.7531    6.0222 H         1 <0>         0.0604
     51 H13         3.3413    1.1870    4.4651 H         1 <0>         0.0572
     52 H14         1.9364    2.8475    3.2744 H         1 <0>         0.0727
     53 H15         1.2857    3.4135    4.8314 H         1 <0>         0.0728
     54 H16         4.2422    3.4389    4.0780 H         1 <0>         0.0719
     55 H17         2.1949    5.7005    4.1812 H         1 <0>         0.0558
     56 H18         3.9384    5.8917    3.8780 H         1 <0>         0.0556
     57 H19         2.9207    5.0240    2.7034 H         1 <0>         0.0558
     58 H20         3.7755    3.2611    6.5069 H         1 <0>         0.0565
     59 H21         4.4376    4.8622    6.0991 H         1 <0>         0.0551
     60 H22         2.6941    4.6710    6.4023 H         1 <0>         0.0566
     61 H23        -1.8330   -2.7145    7.8770 H         1 <0>         0.1080
     62 H24        -1.8679   -4.2739    8.7346 H         1 <0>         0.0965
     63 H25         0.3840   -1.2244    8.1230 H         1 <0>         0.1418
     64 H26         2.4548   -1.3196    9.8546 H         1 <0>         0.1405
     65 H27         2.3395   -3.6423   11.0621 H         1 <0>         0.1950
     66 H28        -2.7491   -6.4788    4.1360 H         1 <0>         0.0846
     67 H29        -2.3792   -4.7709    4.4749 H         1 <0>         0.0950
     68 H30        -3.8937   -5.2063    3.6473 H         1 <0>         0.0657
@<TRIPOS>BOND
     1    1    2 1
     2    1   40 1
     3    1   41 1
     4    1   42 1
     5    2    7 1
     6    2    3 2
     7    3    4 1
     8    3   43 1
     9    4    5 2
    10    4   44 1
    11    5    6 1
    12    5   45 1
    13    6   10 1
    14    6    7 1
    15    7    8 2
    16    8    9 1
    17    9   10 2
    18    9   39 1
    19   10   11 1
    20   11   12 2
    21   11   13 1
    22   13   18 1
    23   13   14 2
    24   14   15 1
    25   14   38 1
    26   15   16 2
    27   15   17 am
    28   17   18 1
    29   17   32 1
    30   18   19 1
    31   18   20 1
    32   20   25 ar
    33   20   21 ar
    34   21   22 ar
    35   21   46 1
    36   22   23 ar
    37   22   47 1
    38   23   24 ar
    39   23   48 1
    40   24   25 ar
    41   24   26 1
    42   25   49 1
    43   26   27 1
    44   27   28 1
    45   27   50 1
    46   27   51 1
    47   28   29 1
    48   28   52 1
    49   28   53 1
    50   29   30 1
    51   29   31 1
    52   29   54 1
    53   30   55 1
    54   30   56 1
    55   30   57 1
    56   31   58 1
    57   31   59 1
    58   31   60 1
    59   32   33 1
    60   32   61 1
    61   32   62 1
    62   33   37 1
    63   33   34 2
    64   34   35 1
    65   34   63 1
    66   35   36 2
    67   35   64 1
    68   36   37 1
    69   36   65 1
    70   39   66 1
    71   39   67 1
    72   39   68 1
@<TRIPOS>MOLECULE
ZINC05286417
   39    42     0     0     0
SMALL
USER_CHARGES
1-oxido-2,4,5-triphenyl-3H-imidazol-1-ium
@<TRIPOS>ATOM
      1 C1          7.0637    7.2919   -1.7032 C.ar      1 <0>        -0.1364
      2 C2          5.7535    7.3357   -1.2602 C.ar      1 <0>        -0.1235
      3 C3          5.1273    6.1831   -0.8339 C.ar      1 <0>        -0.1047
      4 C4          5.8192    4.9695   -0.8496 C.ar      1 <0>         0.0384
      5 C5          7.1436    4.9340   -1.2928 C.ar      1 <0>        -0.1051
      6 C6          7.7552    6.0935   -1.7216 C.ar      1 <0>        -0.1203
      7 C7          5.1561    3.7320   -0.3946 C.2       1 <0>         0.0113
      8 C8          5.6752    2.7824    0.4708 C.2       1 <0>        -0.0285
      9 N1          4.7541    1.8176    0.6215 N.pl3     1 <0>        -0.1482
     10 O1          4.9004    0.6693    1.4370 O.3       1 <0>        -0.6164
     11 C9          3.6964    2.1020   -0.1036 C.2       1 <0>         0.1424
     12 N2          3.9011    3.2932   -0.7456 N.2       1 <0>        -0.4817
     13 C10         2.4743    1.2763   -0.1977 C.ar      1 <0>         0.0322
     14 C11         1.2247    1.8856   -0.3257 C.ar      1 <0>        -0.0982
     15 C12         0.0880    1.1089   -0.4131 C.ar      1 <0>        -0.1312
     16 C13         0.1843   -0.2708   -0.3738 C.ar      1 <0>        -0.1334
     17 C14         1.4195   -0.8810   -0.2462 C.ar      1 <0>        -0.1288
     18 C15         2.5642   -0.1163   -0.1583 C.ar      1 <0>        -0.0850
     19 C16         7.0088    2.8245    1.1149 C.ar      1 <0>         0.0313
     20 C17         7.8759    1.7383    1.0010 C.ar      1 <0>        -0.0908
     21 C18         9.1189    1.7857    1.5982 C.ar      1 <0>        -0.1257
     22 C19         9.5012    2.9032    2.3184 C.ar      1 <0>        -0.1343
     23 C20         8.6431    3.9816    2.4399 C.ar      1 <0>        -0.1251
     24 C21         7.3999    3.9482    1.8423 C.ar      1 <0>        -0.1032
     25 H1          7.5487    8.1975   -2.0365 H         1 <0>         0.1135
     26 H2          5.2198    8.2745   -1.2484 H         1 <0>         0.1160
     27 H3          4.1045    6.2185   -0.4890 H         1 <0>         0.1209
     28 H4          7.6859    4.0000   -1.3035 H         1 <0>         0.1179
     29 H5          8.7777    6.0667   -2.0684 H         1 <0>         0.1162
     30 H6          1.1482    2.9624   -0.3565 H         1 <0>         0.1232
     31 H7         -0.8789    1.5788   -0.5170 H         1 <0>         0.1167
     32 H8         -0.7088   -0.8742   -0.4426 H         1 <0>         0.1135
     33 H9          1.4877   -1.9584   -0.2157 H         1 <0>         0.1163
     34 H10         3.5279   -0.5938   -0.0594 H         1 <0>         0.1316
     35 H11         7.5769    0.8635    0.4427 H         1 <0>         0.1184
     36 H12         9.7929    0.9466    1.5072 H         1 <0>         0.1153
     37 H13        10.4734    2.9340    2.7876 H         1 <0>         0.1134
     38 H14         8.9472    4.8515    3.0031 H         1 <0>         0.1157
     39 H15         6.7310    4.7909    1.9373 H         1 <0>         0.1162
@<TRIPOS>BOND
     1    1    6 ar
     2    1    2 ar
     3    1   25 1
     4    2    3 ar
     5    2   26 1
     6    3    4 ar
     7    3   27 1
     8    4    5 ar
     9    4    7 1
    10    5    6 ar
    11    5   28 1
    12    6   29 1
    13    7   12 1
    14    7    8 2
    15    8   19 1
    16    8    9 1
    17    9   10 1
    18    9   11 1
    19   11   13 1
    20   11   12 2
    21   13   18 ar
    22   13   14 ar
    23   14   15 ar
    24   14   30 1
    25   15   16 ar
    26   15   31 1
    27   16   17 ar
    28   16   32 1
    29   17   18 ar
    30   17   33 1
    31   18   34 1
    32   19   24 ar
    33   19   20 ar
    34   20   21 ar
    35   20   35 1
    36   21   22 ar
    37   21   36 1
    38   22   23 ar
    39   22   37 1
    40   23   24 ar
    41   23   38 1
    42   24   39 1
@<TRIPOS>MOLECULE
ZINC06855543
   28    29     0     0     0
SMALL
USER_CHARGES
6,8-dichloro-3-(2-methylpropanoyl)-2-sulfanyl-quinazolin-4-one
@<TRIPOS>ATOM
      1 C1         -0.3519    4.3380    1.9849 C.3       1 <0>        -0.1340
      2 C2          0.0152    2.8760    2.2471 C.3       1 <0>        -0.1077
      3 C3          1.5315    2.7523    2.4103 C.3       1 <0>        -0.1384
      4 C4         -0.4357    2.0287    1.0853 C.2       1 <0>         0.4844
      5 O1          0.3673    1.6514    0.2651 O.2       1 <0>        -0.3926
      6 N1         -1.7348    1.6918    0.9611 N.am      1 <0>        -0.5227
      7 C5         -2.6467    2.2034    1.8199 C.2       1 <0>         0.5583
      8 O2         -2.3170    2.9666    2.7083 O.3       1 <0>        -0.4965
      9 C6         -4.0499    1.8082    1.6377 C.ar      1 <0>        -0.2345
     10 C7         -5.0611    2.2873    2.4702 C.ar      1 <0>        -0.0005
     11 C8         -6.3620    1.8826    2.2623 C.ar      1 <0>        -0.0947
     12 C9         -6.6725    1.0025    1.2321 C.ar      1 <0>        -0.0439
     13 C10        -5.6893    0.5179    0.3984 C.ar      1 <0>        -0.0518
     14 C11        -4.3617    0.9139    0.5892 C.ar      1 <0>         0.2245
     15 N2         -3.3661    0.4586   -0.2093 N.2       1 <0>        -0.5440
     16 C12        -2.1229    0.8276   -0.0323 C.2       1 <0>         0.5085
     17 S1         -0.8923    0.1866   -1.1182 S.2       1 <0>        -0.6586
     18 Cl1        -6.0962   -0.5796   -0.8837 Cl        1 <0>        -0.0437
     19 Cl2        -7.6237    2.4765    3.2963 Cl        1 <0>        -0.0726
     20 H1         -1.4420    4.4269    1.8676 H         1 <0>         0.0730
     21 H2          0.1451    4.6816    1.0657 H         1 <0>         0.0481
     22 H3         -0.0227    4.9565    2.8329 H         1 <0>         0.0629
     23 H4         -0.4893    2.5213    3.1580 H         1 <0>         0.1093
     24 H5          1.7954    1.7012    2.5988 H         1 <0>         0.0560
     25 H6          1.8607    3.3708    3.2583 H         1 <0>         0.0605
     26 H7          2.0284    3.0960    1.4911 H         1 <0>         0.0634
     27 H8         -4.8262    2.9713    3.2724 H         1 <0>         0.1444
     28 H9         -7.6972    0.6953    1.0834 H         1 <0>         0.1431
@<TRIPOS>BOND
     1    1    2 1
     2    1   20 1
     3    1   21 1
     4    1   22 1
     5    2    3 1
     6    2    4 1
     7    2   23 1
     8    3   24 1
     9    3   25 1
    10    3   26 1
    11    4    5 2
    12    4    6 am
    13    6   16 1
    14    6    7 1
    15    7    8 1
    16    7    9 2
    17    9   14 ar
    18    9   10 ar
    19   10   11 ar
    20   10   27 1
    21   11   12 ar
    22   11   19 1
    23   12   13 ar
    24   12   28 1
    25   13   14 ar
    26   13   18 1
    27   14   15 2
    28   15   16 1
    29   16   17 2
@<TRIPOS>MOLECULE
ZINC36351036
   34    38     0     0     0
SMALL
USER_CHARGES

@<TRIPOS>ATOM
      1 C1         -0.0167    1.3768    0.0096 C.ar      1 <0>        -0.1334
      2 C2          1.1721    2.0835    0.0021 C.ar      1 <0>        -0.0910
      3 C3          2.3751    1.4086   -0.0199 C.ar      1 <0>        -0.1341
      4 C4          2.4004    0.0179   -0.0306 C.ar      1 <0>         0.1160
      5 C5          1.2051   -0.6874   -0.0115 C.ar      1 <0>        -0.1300
      6 C6          0.0021   -0.0041    0.0020 C.ar      1 <0>        -0.0696
      7 C7          1.2061   -2.1858    0.0107 C.3       1 <0>         0.0775
      8 C8          0.0304   -2.8101   -0.6321 C.2       1 <0>        -0.3383
      9 C9         -0.0369   -4.0217   -1.2642 C.2       1 <0>         0.1689
     10 N1         -1.2461   -4.3413   -1.7246 N.2       1 <0>        -0.6370
     11 C10        -2.2760   -3.5376   -1.5967 C.2       1 <0>         0.4219
     12 O1         -3.5503   -3.7295   -2.0168 O.3       1 <0>        -0.6208
     13 S1         -1.6311   -2.2102   -0.7851 S.3       1 <0>        -0.0766
     14 S2          1.4102   -5.0406   -1.4436 S.3       1 <0>        -0.0539
     15 C11         2.6121   -4.2146   -0.3511 C.3       1 <0>         0.0300
     16 C12         2.5089   -2.7105   -0.5940 C.3       1 <0>        -0.1310
     17 C13         3.6433   -1.9537    0.0523 C.2       1 <0>         0.5039
     18 O2          4.5321   -2.5183    0.6448 O.2       1 <0>        -0.4155
     19 O3          3.6081   -0.6079   -0.0702 O.3       1 <0>        -0.2961
     20 C14         4.0054   -4.6892   -0.6745 C.2       1 <0>        -0.1188
     21 C15         4.8978   -5.3239    0.1243 C.2       1 <0>        -0.1218
     22 C16         6.1325   -5.6696   -0.3923 C.2       1 <0>        -0.1518
     23 C17         6.4143   -5.3636   -1.6824 C.2       1 <0>        -0.1787
     24 S3          4.9060   -4.5682   -2.2112 S.3       1 <0>         0.0544
     25 H1         -0.9589    1.9044    0.0260 H         1 <0>         0.1304
     26 H2          1.1587    3.1634    0.0130 H         1 <0>         0.1325
     27 H3          3.3020    1.9628   -0.0292 H         1 <0>         0.1340
     28 H4         -0.9276   -0.5537    0.0070 H         1 <0>         0.1500
     29 H5          1.1925   -2.4922    1.0566 H         1 <0>         0.0806
     30 H6          2.3781   -4.4371    0.6899 H         1 <0>         0.1212
     31 H7          2.5143   -2.5158   -1.6665 H         1 <0>         0.1282
     32 H8          4.6481   -5.5558    1.1491 H         1 <0>         0.1327
     33 H9          6.8618   -6.1756    0.2229 H         1 <0>         0.1322
     34 H10         7.3158   -5.5550   -2.2454 H         1 <0>         0.1838
@<TRIPOS>BOND
     1    1    6 ar
     2    1    2 ar
     3    1   25 1
     4    2    3 ar
     5    2   26 1
     6    3    4 ar
     7    3   27 1
     8    4   19 1
     9    4    5 ar
    10    5    6 ar
    11    5    7 1
    12    6   28 1
    13    7   16 1
    14    7    8 1
    15    7   29 1
    16    8   13 1
    17    8    9 2
    18    9   10 1
    19    9   14 1
    20   10   11 2
    21   11   12 1
    22   11   13 1
    23   14   15 1
    24   15   16 1
    25   15   20 1
    26   15   30 1
    27   16   17 1
    28   16   31 1
    29   17   18 2
    30   17   19 1
    31   20   24 1
    32   20   21 2
    33   21   22 1
    34   21   32 1
    35   22   23 2
    36   22   33 1
    37   23   24 1
    38   23   34 1
@<TRIPOS>MOLECULE
ZINC41547864
   47    49     0     0     0
SMALL
USER_CHARGES

@<TRIPOS>ATOM
      1 C1         -0.3017    1.6041    0.0797 C.3       1 <0>        -0.1155
      2 C2         -0.1365    0.1082    0.0011 C.ar      1 <0>        -0.0703
      3 C3         -0.2381   -0.5356   -1.2151 C.ar      1 <0>        -0.1174
      4 C4         -0.0867   -1.9086   -1.2890 C.ar      1 <0>        -0.1261
      5 C5          0.1669   -2.6452   -0.1454 C.ar      1 <0>        -0.0783
      6 C6          0.2708   -2.0135    1.0766 C.ar      1 <0>        -0.1080
      7 C7          0.1253   -0.6279    1.1569 C.ar      1 <0>         0.0054
      8 C8          0.2415    0.0566    2.4631 C.2       1 <0>        -0.0015
      9 C9          0.9929    1.1575    2.7168 C.2       1 <0>        -0.1222
     10 C10         0.8131    1.4766    4.0892 C.2       1 <0>        -0.2016
     11 C11        -0.0543    0.5362    4.6092 C.2       1 <0>         0.0753
     12 N1         -0.3978   -0.3118    3.6218 N.pl3     1 <0>        -0.4324
     13 C12        -1.3083   -1.4509    3.7617 C.3       1 <0>         0.0681
     14 C13        -0.5373    0.4732    6.0353 C.3       1 <0>        -0.0582
     15 C14        -2.0422    0.3209    6.2655 C.3       1 <0>        -0.2073
     16 C15        -1.3551    1.6564    6.5571 C.3       1 <0>        -0.1167
     17 C16         1.4313    2.5931    4.8162 C.2       1 <0>         0.5446
     18 O1          2.1063    3.4169    4.2133 O.co2     1 <0>        -0.7019
     19 O2          1.2715    2.6996    6.0249 O.co2     1 <0>        -0.6898
     20 C17         0.3294   -4.1407   -0.2349 C.3       1 <0>        -0.0272
     21 C18         0.1689   -4.5850   -1.6901 C.3       1 <0>        -0.1418
     22 C19         1.7200   -4.5336    0.2679 C.3       1 <0>        -0.1390
     23 C20        -0.7357   -4.8220    0.6267 C.3       1 <0>        -0.1377
     24 H1          0.6781    2.0803    0.0429 H         1 <0>         0.0746
     25 H2         -0.9045    1.9477   -0.7609 H         1 <0>         0.0579
     26 H3         -0.7981    1.8662    1.0140 H         1 <0>         0.0747
     27 H4         -0.4366    0.0335   -2.1113 H         1 <0>         0.1202
     28 H5         -0.1672   -2.4079   -2.2433 H         1 <0>         0.1221
     29 H6          0.4687   -2.5895    1.9685 H         1 <0>         0.1159
     30 H7          1.6111    1.6902    2.0092 H         1 <0>         0.1339
     31 H8         -0.7550   -2.3156    4.1281 H         1 <0>         0.0634
     32 H9         -2.0990   -1.1994    4.4685 H         1 <0>         0.0839
     33 H10        -1.7485   -1.6853    2.7925 H         1 <0>         0.0754
     34 H11         0.1323   -0.0242    6.7370 H         1 <0>         0.1094
     35 H12        -2.6829    0.2662    5.3854 H         1 <0>         0.0849
     36 H13        -2.3629   -0.2770    7.1186 H         1 <0>         0.0902
     37 H14        -1.2237    1.9372    7.6021 H         1 <0>         0.0943
     38 H15        -1.5437    2.4803    5.8689 H         1 <0>         0.0914
     39 H16         0.9277   -4.0997   -2.3040 H         1 <0>         0.0584
     40 H17         0.2864   -5.6667   -1.7549 H         1 <0>         0.0552
     41 H18        -0.8218   -4.3051   -2.0483 H         1 <0>         0.0575
     42 H19         1.8343   -4.2171    1.3046 H         1 <0>         0.0570
     43 H20         1.8375   -5.6153    0.2031 H         1 <0>         0.0556
     44 H21         2.4788   -4.0483   -0.3459 H         1 <0>         0.0567
     45 H22        -1.7264   -4.5421    0.2685 H         1 <0>         0.0553
     46 H23        -0.6182   -5.9037    0.5620 H         1 <0>         0.0560
     47 H24        -0.6214   -4.5055    1.6635 H         1 <0>         0.0557
@<TRIPOS>BOND
     1    1    2 1
     2    1   24 1
     3    1   25 1
     4    1   26 1
     5    2    7 ar
     6    2    3 ar
     7    3    4 ar
     8    3   27 1
     9    4    5 ar
    10    4   28 1
    11    5    6 ar
    12    5   20 1
    13    6    7 ar
    14    6   29 1
    15    7    8 1
    16    8   12 1
    17    8    9 2
    18    9   10 1
    19    9   30 1
    20   10   11 2
    21   10   17 1
    22   11   12 1
    23   11   14 1
    24   12   13 1
    25   13   31 1
    26   13   32 1
    27   13   33 1
    28   14   16 1
    29   14   15 1
    30   14   34 1
    31   15   16 1
    32   15   35 1
    33   15   36 1
    34   16   37 1
    35   16   38 1
    36   17   18 2
    37   17   19 1
    38   20   21 1
    39   20   22 1
    40   20   23 1
    41   21   39 1
    42   21   40 1
    43   21   41 1
    44   22   42 1
    45   22   43 1
    46   22   44 1
    47   23   45 1
    48   23   46 1
    49   23   47 1
@<TRIPOS>MOLECULE
ZINC61692150
   24    26     0     0     0
SMALL
USER_CHARGES

@<TRIPOS>ATOM
      1 C1         -0.0167    1.3793    0.0096 C.ar      1 <0>        -0.0756
      2 C2          1.1696    2.0898    0.0021 C.ar      1 <0>        -0.1019
      3 C3          2.3781    1.4196   -0.0130 C.ar      1 <0>         0.0094
      4 C4          2.4001    0.0298   -0.0207 C.ar      1 <0>         0.1834
      5 C5          1.2076   -0.6804   -0.0132 C.ar      1 <0>        -0.0474
      6 C6          0.0021   -0.0041    0.0020 C.ar      1 <0>        -0.0794
      7 Br1        -1.6231   -0.9707    0.0130 Br        1 <0>        -0.0451
      8 N1          3.6233   -0.6527   -0.0366 N.pl3     1 <0>        -0.4585
      9 C7          4.2362   -1.0010    1.1381 C.2       1 <0>         0.5314
     10 O1          3.6764   -0.6950    2.3277 O.3       1 <0>        -0.6107
     11 C8          5.4308   -1.6678    1.0752 C.2       1 <0>        -0.3415
     12 C9          6.0325   -1.9974   -0.1664 C.2       1 <0>         0.2174
     13 C10         7.2542   -2.6796   -0.0764 C.2       1 <0>        -0.1626
     14 C11         7.7793   -2.9786    1.1305 C.2       1 <0>        -0.1249
     15 S1          6.5751   -2.3123    2.2672 S.3       1 <0>         0.1017
     16 N2          5.3564   -1.6141   -1.2785 N.2       1 <0>        -0.5345
     17 C12         4.2046   -0.9772   -1.2050 C.2       1 <0>         0.5128
     18 S2          3.4175   -0.5383   -2.6606 S.2       1 <0>        -0.6906
     19 Cl1         3.8669    2.3124   -0.0230 Cl        1 <0>        -0.0496
     20 H1         -0.9598    1.9053    0.0260 H         1 <0>         0.1437
     21 H2          1.1517    3.1697    0.0077 H         1 <0>         0.1466
     22 H3          1.2215   -1.7603   -0.0195 H         1 <0>         0.1383
     23 H4          7.7771   -2.9673   -0.9766 H         1 <0>         0.1427
     24 H5          8.7016   -3.4944    1.3537 H         1 <0>         0.1948
@<TRIPOS>BOND
     1    1    6 ar
     2    1    2 ar
     3    1   20 1
     4    2    3 ar
     5    2   21 1
     6    3    4 ar
     7    3   19 1
     8    4    5 ar
     9    4    8 1
    10    5    6 ar
    11    5   22 1
    12    6    7 1
    13    8   17 1
    14    8    9 1
    15    9   10 1
    16    9   11 2
    17   11   15 1
    18   11   12 1
    19   12   13 1
    20   12   16 2
    21   13   14 2
    22   13   23 1
    23   14   15 1
    24   14   24 1
    25   16   17 1
    26   17   18 2
@<TRIPOS>MOLECULE
ZINC13138332
   54    58     0     0     0
SMALL
USER_CHARGES
4-[2,5-dimethyl-3-[(Z)-(2-oxo-1-phenyl-indolin-3-ylidene)methyl]pyrrol-1-yl]benzoic acid
@<TRIPOS>ATOM
      1 C1          3.3284    7.7669    2.0803 C.3       1 <0>        -0.0838
      2 C2          2.4526    8.1906    0.9294 C.2       1 <0>         0.0141
      3 C3          2.2396    9.4580    0.5398 C.2       1 <0>        -0.1202
      4 C4          1.3237    9.3955   -0.6079 C.2       1 <0>        -0.2001
      5 C5          1.0641    8.0527   -0.8150 C.2       1 <0>         0.0860
      6 N1          1.7518    7.3448    0.1141 N.pl3     1 <0>        -0.3823
      7 C6          1.7415    5.9521    0.2266 C.ar      1 <0>         0.0910
      8 C7          2.9082    5.2293    0.0009 C.ar      1 <0>        -0.1206
      9 C8          2.9021    3.8568    0.1114 C.ar      1 <0>        -0.0766
     10 C9          1.7214    3.1900    0.4507 C.ar      1 <0>        -0.0979
     11 C10         0.5497    3.9194    0.6716 C.ar      1 <0>        -0.0671
     12 C11         0.5648    5.2920    0.5645 C.ar      1 <0>        -0.1231
     13 C12         1.7106    1.7196    0.5695 C.2       1 <0>         0.4869
     14 O1          2.7288    1.0867    0.3723 O.co2     1 <0>        -0.6264
     15 C13         0.1724    7.4777   -1.8853 C.3       1 <0>        -0.0924
     16 C14         0.7950   10.5233   -1.3750 C.2       1 <0>         0.1048
     17 C15         0.4164   11.6786   -0.7285 C.2       1 <0>        -0.2024
     18 C16         0.0055   12.9616   -1.3433 C.ar      1 <0>        -0.0854
     19 C17        -0.1236   13.3894   -2.6601 C.ar      1 <0>        -0.0717
     20 C18        -0.5398   14.6790   -2.9232 C.ar      1 <0>        -0.1401
     21 C19        -0.8272   15.5424   -1.8791 C.ar      1 <0>        -0.0919
     22 C20        -0.7022   15.1274   -0.5689 C.ar      1 <0>        -0.1338
     23 C21        -0.2843   13.8320   -0.2842 C.ar      1 <0>         0.1438
     24 N2         -0.0786   13.1690    0.9212 N.am      1 <0>        -0.5089
     25 C22         0.3265   11.9034    0.7212 C.2       1 <0>         0.5577
     26 O2          0.5783   11.0868    1.5891 O.2       1 <0>        -0.4744
     27 C23        -0.2743   13.7453    2.1825 C.ar      1 <0>         0.1340
     28 C24        -1.5526   14.0955    2.5968 C.ar      1 <0>        -0.1146
     29 C25        -1.7429   14.6584    3.8436 C.ar      1 <0>        -0.1093
     30 C26        -0.6607   14.8843    4.6743 C.ar      1 <0>        -0.1161
     31 C27         0.6142   14.5419    4.2624 C.ar      1 <0>        -0.1078
     32 C28         0.8104   13.9730    3.0192 C.ar      1 <0>        -0.1038
     33 H1          4.3460    7.6081    1.7233 H         1 <0>         0.0682
     34 H2          3.3283    8.5457    2.8428 H         1 <0>         0.0767
     35 H3          2.9444    6.8404    2.5071 H         1 <0>         0.0664
     36 H4          2.6565   10.3491    0.9853 H         1 <0>         0.1381
     37 H5          3.8202    5.7452   -0.2609 H         1 <0>         0.1229
     38 H6          3.8083    3.2962   -0.0644 H         1 <0>         0.1367
     39 H7         -0.3654    3.4072    0.9297 H         1 <0>         0.1403
     40 H8         -0.3391    5.8566    0.7394 H         1 <0>         0.1221
     41 H9         -0.8459    7.3966   -1.5049 H         1 <0>         0.0773
     42 H10         0.1835    8.1315   -2.7574 H         1 <0>         0.0809
     43 H11         0.5346    6.4892   -2.1676 H         1 <0>         0.0739
     44 H12         0.7015   10.4497   -2.4484 H         1 <0>         0.1364
     45 H13         0.1004   12.7153   -3.4737 H         1 <0>         0.1278
     46 H14        -0.6417   15.0150   -3.9445 H         1 <0>         0.1273
     47 H15        -1.1519   16.5501   -2.0923 H         1 <0>         0.1276
     48 H16        -0.9292   15.8098    0.2368 H         1 <0>         0.1225
     49 H17        -2.3976   13.9238    1.9465 H         1 <0>         0.1258
     50 H18        -2.7374   14.9266    4.1683 H         1 <0>         0.1289
     51 H19        -0.8115   15.3288    5.6470 H         1 <0>         0.1269
     52 H20         1.4574   14.7193    4.9136 H         1 <0>         0.1293
     53 H21         1.8063   13.7058    2.6981 H         1 <0>         0.1251
     54 O3          0.5716    1.0785    0.8968 O.co2     1 <0>        -0.7487
@<TRIPOS>BOND
     1    1    2 1
     2    1   33 1
     3    1   34 1
     4    1   35 1
     5    2    6 1
     6    2    3 2
     7    3    4 1
     8    3   36 1
     9    4    5 2
    10    4   16 1
    11    5    6 1
    12    5   15 1
    13    6    7 1
    14    7   12 ar
    15    7    8 ar
    16    8    9 ar
    17    8   37 1
    18    9   10 ar
    19    9   38 1
    20   10   11 ar
    21   10   13 1
    22   11   12 ar
    23   11   39 1
    24   12   40 1
    25   13   14 2
    26   13   54 1
    27   15   41 1
    28   15   42 1
    29   15   43 1
    30   16   17 2
    31   16   44 1
    32   17   25 1
    33   17   18 1
    34   18   23 ar
    35   18   19 ar
    36   19   20 ar
    37   19   45 1
    38   20   21 ar
    39   20   46 1
    40   21   22 ar
    41   21   47 1
    42   22   23 ar
    43   22   48 1
    44   23   24 1
    45   24   25 am
    46   24   27 1
    47   25   26 2
    48   27   32 ar
    49   27   28 ar
    50   28   29 ar
    51   28   49 1
    52   29   30 ar
    53   29   50 1
    54   30   31 ar
    55   30   51 1
    56   31   32 ar
    57   31   52 1
    58   32   53 1
@<TRIPOS>MOLECULE
ZINC33608630
   41    43     0     0     0
SMALL
USER_CHARGES
N-(2-chlorophenyl)-4-(2-methoxyphenoxy)benzenesulfonamide
@<TRIPOS>ATOM
      1 C1         -1.8617   -2.3934    4.6554 C.3       1 <0>         0.0223
      2 O1         -1.8323   -0.9984    4.3469 O.3       1 <0>        -0.2998
      3 C2         -0.6084   -0.4156    4.2393 C.ar      1 <0>         0.1230
      4 C3          0.5388   -1.1698    4.4266 C.ar      1 <0>        -0.2013
      5 C4          1.7822   -0.5758    4.3169 C.ar      1 <0>        -0.0779
      6 C5          1.8849    0.7707    4.0200 C.ar      1 <0>        -0.1472
      7 C6          0.7446    1.5291    3.8319 C.ar      1 <0>        -0.0847
      8 C7         -0.5051    0.9387    3.9352 C.ar      1 <0>         0.0514
      9 O2         -1.6277    1.6818    3.7445 O.3       1 <0>        -0.2492
     10 C8         -2.2900    2.1303    4.8429 C.ar      1 <0>         0.1555
     11 C9         -1.7618    1.9171    6.1083 C.ar      1 <0>        -0.2142
     12 C10        -2.4344    2.3791    7.2229 C.ar      1 <0>         0.0111
     13 C11        -3.6388    3.0429    7.0793 C.ar      1 <0>        -0.6846
     14 C12        -4.1702    3.2516    5.8200 C.ar      1 <0>         0.0110
     15 C13        -3.4987    2.7972    4.7017 C.ar      1 <0>        -0.1698
     16 S1         -4.4977    3.6245    8.5037 S.o2      1 <0>         2.5939
     17 O3         -3.5251    3.7845    9.5272 O.2       1 <0>        -1.0394
     18 O4         -5.3290    4.6918    8.0690 O.2       1 <0>        -0.9952
     19 N1         -5.5079    2.4084    8.9967 N.2       1 <0>        -1.0471
     20 C14        -4.9803    1.1677    9.3647 C.ar      1 <0>         0.2505
     21 C15        -3.7587    1.0981   10.0217 C.ar      1 <0>        -0.2359
     22 C16        -3.2425   -0.1293   10.3888 C.ar      1 <0>        -0.0856
     23 C17        -3.9350   -1.2893   10.0932 C.ar      1 <0>        -0.1955
     24 C18        -5.1490   -1.2248    9.4344 C.ar      1 <0>        -0.0889
     25 C19        -5.6741    0.0003    9.0688 C.ar      1 <0>        -0.0774
     26 Cl1        -7.1978    0.0808    8.2408 Cl        1 <0>        -0.0891
     27 H1         -2.9060   -2.7343    4.7126 H         1 <0>         0.1057
     28 H2         -1.3663   -2.5656    5.6223 H         1 <0>         0.0592
     29 H3         -1.3355   -2.9540    3.8688 H         1 <0>         0.0556
     30 H4          0.4615   -2.2219    4.6579 H         1 <0>         0.1353
     31 H5          2.6755   -1.1649    4.4631 H         1 <0>         0.1298
     32 H6          2.8582    1.2309    3.9345 H         1 <0>         0.1318
     33 H7          0.8276    2.5805    3.5998 H         1 <0>         0.1384
     34 H8         -0.8233    1.3948    6.2212 H         1 <0>         0.1224
     35 H9         -2.0214    2.2177    8.2077 H         1 <0>         0.1344
     36 H10        -5.1109    3.7707    5.7106 H         1 <0>         0.1413
     37 H11        -3.9138    2.9611    3.7182 H         1 <0>         0.1315
     38 H12        -3.2148    2.0030   10.2489 H         1 <0>         0.1513
     39 H13        -2.2944   -0.1835   10.9031 H         1 <0>         0.1067
     40 H14        -3.5264   -2.2478   10.3772 H         1 <0>         0.1080
     41 H15        -5.6873   -2.1326    9.2051 H         1 <0>         0.1123
@<TRIPOS>BOND
     1    1    2 1
     2    1   27 1
     3    1   28 1
     4    1   29 1
     5    2    3 1
     6    3    8 ar
     7    3    4 ar
     8    4    5 ar
     9    4   30 1
    10    5    6 ar
    11    5   31 1
    12    6    7 ar
    13    6   32 1
    14    7    8 ar
    15    7   33 1
    16    8    9 1
    17    9   10 1
    18   10   15 ar
    19   10   11 ar
    20   11   12 ar
    21   11   34 1
    22   12   13 ar
    23   12   35 1
    24   13   14 ar
    25   13   16 1
    26   14   15 ar
    27   14   36 1
    28   15   37 1
    29   16   17 2
    30   16   18 2
    31   16   19 1
    32   19   20 1
    33   20   25 ar
    34   20   21 ar
    35   21   22 ar
    36   21   38 1
    37   22   23 ar
    38   22   39 1
    39   23   24 ar
    40   23   40 1
    41   24   25 ar
    42   24   41 1
    43   25   26 1
@<TRIPOS>MOLECULE
ZINC09553450
   54    58     0     0     0
SMALL
USER_CHARGES

@<TRIPOS>ATOM
      1 C1          0.0408    1.4759    0.0616 C.ar      1 <0>        -0.1310
      2 C2          1.2470    2.1511    0.0701 C.ar      1 <0>        -0.1305
      3 C3          2.4347    1.4446    0.0381 C.ar      1 <0>        -0.1131
      4 C4          2.4163    0.0630   -0.0018 C.ar      1 <0>        -0.0532
      5 C5          1.2101   -0.6122   -0.0093 C.ar      1 <0>        -0.0975
      6 C6          0.0223    0.0943    0.0212 C.ar      1 <0>        -0.1293
      7 C7          3.7112   -0.7071   -0.0376 C.3       1 <0>        -0.0457
      8 C8          3.8699   -1.4828    1.2447 C.ar      1 <0>        -0.0533
      9 C9          3.0119   -2.5282    1.5308 C.ar      1 <0>        -0.0976
     10 C10         3.1575   -3.2398    2.7070 C.ar      1 <0>        -0.1294
     11 C11         4.1614   -2.9062    3.5968 C.ar      1 <0>        -0.1310
     12 C12         5.0200   -1.8613    3.3103 C.ar      1 <0>        -0.1305
     13 C13         4.8770   -1.1526    2.1321 C.ar      1 <0>        -0.1131
     14 C14         3.6958   -1.6617   -1.2036 C.2       1 <0>         0.3793
     15 O1          2.7495   -2.6137   -1.2805 O.3       1 <0>        -0.5908
     16 C15         4.6404   -1.5602   -2.1792 C.2       1 <0>        -0.4378
     17 C16         4.7590   -2.4088   -3.3817 C.2       1 <0>         0.3382
     18 N1          3.9654   -3.4088   -3.7102 N.2       1 <0>        -0.3887
     19 N2          4.1805   -4.0736   -4.7946 N.2       1 <0>        -0.3130
     20 C17         3.3923   -5.0668   -5.1208 C.2       1 <0>         0.0880
     21 C18         3.6375   -5.8245   -6.3569 C.ar      1 <0>         0.0184
     22 C19         4.7137   -5.5042   -7.1986 C.ar      1 <0>        -0.1507
     23 C20         4.9052   -6.2426   -8.3475 C.ar      1 <0>         0.0936
     24 N3          4.0944   -7.2358   -8.6586 N.ar      1 <0>        -0.4958
     25 C21         3.0707   -7.5714   -7.8968 C.ar      1 <0>         0.0946
     26 C22         2.8055   -6.8926   -6.7260 C.ar      1 <0>        -0.1614
     27 C23         5.9283   -1.9334   -4.1510 C.ar      1 <0>        -0.0794
     28 C24         6.4853   -2.3729   -5.3515 C.ar      1 <0>        -0.0832
     29 C25         7.6025   -1.7441   -5.8659 C.ar      1 <0>        -0.1153
     30 C26         8.1764   -0.6766   -5.1966 C.ar      1 <0>        -0.1230
     31 C27         7.6388   -0.2266   -4.0065 C.ar      1 <0>        -0.0760
     32 C28         6.5112   -0.8483   -3.4710 C.ar      1 <0>        -0.1385
     33 C29         5.7361   -0.5792   -2.2414 C.2       1 <0>         0.4482
     34 O2          5.9646    0.2943   -1.4256 O.2       1 <0>        -0.4952
     35 H1         -0.8872    2.0277    0.0911 H         1 <0>         0.1131
     36 H2          1.2614    3.2305    0.1013 H         1 <0>         0.1154
     37 H3          3.3771    1.9722    0.0440 H         1 <0>         0.1204
     38 H4          1.1957   -1.6917   -0.0412 H         1 <0>         0.1434
     39 H5         -0.9201   -0.4333    0.0149 H         1 <0>         0.1153
     40 H6          4.5440   -0.0126   -0.1476 H         1 <0>         0.1249
     41 H7          2.2276   -2.7889    0.8356 H         1 <0>         0.1436
     42 H8          2.4868   -4.0561    2.9308 H         1 <0>         0.1153
     43 H9          4.2747   -3.4616    4.5161 H         1 <0>         0.1131
     44 H10         5.8040   -1.6005    4.0057 H         1 <0>         0.1154
     45 H11         5.5501   -0.3386    1.9065 H         1 <0>         0.1204
     46 H12         2.5621   -5.3296   -4.4821 H         1 <0>         0.1102
     47 H13         5.3811   -4.6921   -6.9508 H         1 <0>         0.1383
     48 H14         5.7305   -6.0042   -9.0020 H         1 <0>         0.1528
     49 H15         2.4336   -8.3919   -8.1923 H         1 <0>         0.1537
     50 H16         1.9685   -7.1759   -6.1052 H         1 <0>         0.1370
     51 H17         6.0433   -3.2052   -5.8790 H         1 <0>         0.1356
     52 H18         8.0311   -2.0876   -6.7957 H         1 <0>         0.1248
     53 H19         9.0502   -0.1929   -5.6076 H         1 <0>         0.1245
     54 H20         8.0923    0.6065   -3.4900 H         1 <0>         0.1265
@<TRIPOS>BOND
     1    1    6 ar
     2    1    2 ar
     3    1   35 1
     4    2    3 ar
     5    2   36 1
     6    3    4 ar
     7    3   37 1
     8    4    5 ar
     9    4    7 1
    10    5    6 ar
    11    5   38 1
    12    6   39 1
    13    7    8 1
    14    7   14 1
    15    7   40 1
    16    8   13 ar
    17    8    9 ar
    18    9   10 ar
    19    9   41 1
    20   10   11 ar
    21   10   42 1
    22   11   12 ar
    23   11   43 1
    24   12   13 ar
    25   12   44 1
    26   13   45 1
    27   14   15 1
    28   14   16 2
    29   16   33 1
    30   16   17 1
    31   17   18 2
    32   17   27 1
    33   18   19 1
    34   19   20 2
    35   20   21 1
    36   20   46 1
    37   21   26 ar
    38   21   22 ar
    39   22   23 ar
    40   22   47 1
    41   23   24 ar
    42   23   48 1
    43   24   25 ar
    44   25   26 ar
    45   25   49 1
    46   26   50 1
    47   27   32 ar
    48   27   28 ar
    49   28   29 ar
    50   28   51 1
    51   29   30 ar
    52   29   52 1
    53   30   31 ar
    54   30   53 1
    55   31   32 ar
    56   31   54 1
    57   32   33 1
    58   33   34 2
@<TRIPOS>MOLECULE
ZINC39764876
   46    49     0     0     0
SMALL
USER_CHARGES

@<TRIPOS>ATOM
      1 C1         -0.0187    1.5258    0.0104 C.3       1 <0>        -0.1452
      2 C2          0.0021   -0.0041    0.0020 C.3       1 <0>        -0.1082
      3 C3         -1.4333   -0.5336    0.0129 C.3       1 <0>        -0.1055
      4 S1         -1.4087   -2.3475    0.0029 S.3       1 <0>        -0.0102
      5 C4         -3.1124   -2.7969    0.0168 C.2       1 <0>         0.4359
      6 N1         -4.0277   -1.8353    0.0252 N.2       1 <0>        -0.6822
      7 C5         -5.3218   -2.1071   -0.0565 C.2       1 <0>         0.5259
      8 O1         -6.1287   -1.1993    0.0030 O.2       1 <0>        -0.5018
      9 C6         -5.8062   -3.5129   -0.2212 C.3       1 <0>        -0.2185
     10 H1         -6.1872   -3.6244   -1.2363 H         1 <0>         0.1187
     11 C7         -6.9352   -3.8450    0.7490 C.3       1 <0>         0.0624
     12 H2         -7.8255   -3.2734    0.4867 H         1 <0>         0.1044
     13 C8         -7.2301   -5.3272    0.6434 C.2       1 <0>        -0.3858
     14 C9         -6.1890   -6.2176    0.3662 C.2       1 <0>         0.3021
     15 C10        -6.4576   -7.7021    0.2917 C.3       1 <0>        -0.0836
     16 C11        -7.6493   -8.0481    1.1880 C.3       1 <0>        -0.1123
     17 C12        -8.8551   -7.2146    0.7425 C.3       1 <0>        -0.1353
     18 C13        -8.5011   -5.7543    0.8228 C.2       1 <0>         0.3481
     19 O2         -9.4685   -4.8548    1.0783 O.3       1 <0>        -0.6048
     20 N2         -4.9634   -5.7841    0.1372 N.2       1 <0>        -0.6073
     21 C14        -4.6867   -4.4985   -0.0306 C.2       1 <0>         0.4926
     22 N3         -3.4355   -4.0898    0.0129 N.2       1 <0>        -0.6141
     23 C15        -6.5118   -3.5090    2.1558 C.ar      1 <0>        -0.0419
     24 C16        -5.4033   -4.1224    2.7088 C.ar      1 <0>        -0.1179
     25 C17        -5.0143   -3.8143    3.9989 C.ar      1 <0>        -0.0910
     26 C18        -5.7344   -2.8920    4.7365 C.ar      1 <0>        -0.0956
     27 C19        -6.8436   -2.2785    4.1827 C.ar      1 <0>        -0.0942
     28 C20        -7.2287   -2.5833    2.8907 C.ar      1 <0>        -0.0896
     29 Br1        -5.2032   -2.4704    6.5017 Br        1 <0>        -0.0691
     30 H3          1.0039    1.9031    0.0027 H         1 <0>         0.0583
     31 H4         -0.5459    1.8868   -0.8726 H         1 <0>         0.0569
     32 H5         -0.5289    1.8773    0.9072 H         1 <0>         0.0576
     33 H6          0.5123   -0.3556   -0.8948 H         1 <0>         0.0705
     34 H7          0.5293   -0.3651    0.8851 H         1 <0>         0.0713
     35 H8         -1.9435   -0.1821    0.9097 H         1 <0>         0.0944
     36 H9         -1.9605   -0.1726   -0.8702 H         1 <0>         0.0928
     37 H10        -6.6844   -7.9794   -0.7377 H         1 <0>         0.0913
     38 H11        -5.5773   -8.2484    0.6303 H         1 <0>         0.0924
     39 H12        -7.8825   -9.1086    1.0933 H         1 <0>         0.0761
     40 H13        -7.4068   -7.8154    2.2249 H         1 <0>         0.0694
     41 H14        -9.1155   -7.4705   -0.2845 H         1 <0>         0.0885
     42 H15        -9.7023   -7.4207    1.3966 H         1 <0>         0.0836
     43 H16        -4.8413   -4.8428    2.1330 H         1 <0>         0.1365
     44 H17        -4.1484   -4.2938    4.4310 H         1 <0>         0.1262
     45 H18        -7.4062   -1.5582    4.7582 H         1 <0>         0.1276
     46 H19        -8.0923   -2.1013    2.4567 H         1 <0>         0.1305
@<TRIPOS>BOND
     1    1    2 1
     2    1   30 1
     3    1   31 1
     4    1   32 1
     5    2    3 1
     6    2   33 1
     7    2   34 1
     8    3    4 1
     9    3   35 1
    10    3   36 1
    11    4    5 1
    12    5   22 1
    13    5    6 2
    14    6    7 1
    15    7    8 2
    16    7    9 1
    17    9   10 1
    18    9   21 1
    19    9   11 1
    20   11   12 1
    21   11   13 1
    22   11   23 1
    23   13   18 2
    24   13   14 1
    25   14   15 1
    26   14   20 2
    27   15   16 1
    28   15   37 1
    29   15   38 1
    30   16   17 1
    31   16   39 1
    32   16   40 1
    33   17   18 1
    34   17   41 1
    35   17   42 1
    36   18   19 1
    37   20   21 1
    38   21   22 2
    39   23   28 ar
    40   23   24 ar
    41   24   25 ar
    42   24   43 1
    43   25   26 ar
    44   25   44 1
    45   26   27 ar
    46   26   29 1
    47   27   28 ar
    48   27   45 1
    49   28   46 1
@<TRIPOS>MOLECULE
ZINC65004122
   45    48     0     0     0
SMALL
USER_CHARGES

@<TRIPOS>ATOM
      1 C1          2.7670    2.5629   -1.5535 C.3       1 <0>        -0.1597
      2 C2          1.5085    1.8004   -1.1343 C.3       1 <0>        -0.0595
      3 C3          1.4617    0.4755   -1.8509 C.ar      1 <0>        -0.1201
      4 C4          0.7513    0.3514   -3.0289 C.ar      1 <0>        -0.1122
      5 C5          0.7074   -0.8639   -3.6868 C.ar      1 <0>        -0.1822
      6 C6          1.3746   -1.9589   -3.1684 C.ar      1 <0>        -0.1097
      7 C7          2.0871   -1.8417   -1.9914 C.ar      1 <0>        -0.1627
      8 C8          2.1376   -0.6206   -1.3306 C.ar      1 <0>         0.2481
      9 N1          2.8616   -0.4971   -0.1425 N.2       1 <0>        -1.1142
     10 S1          4.5108   -0.6466   -0.1586 S.o2      1 <0>         2.6170
     11 O1          4.7932   -1.9912   -0.5214 O.2       1 <0>        -1.0175
     12 O2          5.0119    0.4619   -0.8931 O.2       1 <0>        -1.0212
     13 C9          5.0684   -0.4449    1.5006 C.2       1 <0>        -0.6488
     14 C10         5.2509   -1.3881    2.4600 C.2       1 <0>        -0.0525
     15 C11         5.7002   -1.0030    3.7038 C.2       1 <0>        -0.1390
     16 C12         5.9489    0.3269    3.9309 C.2       1 <0>        -0.1028
     17 S2          5.5458    1.0512    2.3495 S.3       1 <0>         0.1928
     18 C13         6.4283    0.9848    5.1575 C.2       1 <0>         0.0425
     19 C14         6.7319    0.3792    6.3374 C.2       1 <0>        -0.0036
     20 N2          7.1288    1.3350    7.1907 N.2       1 <0>        -0.4760
     21 C15         7.0805    2.4886    6.5861 C.2       1 <0>         0.2284
     22 O3          6.6573    2.3061    5.3267 O.3       1 <0>        -0.1899
     23 C16         7.4474    3.8143    7.2016 C.3       1 <0>        -0.0831
     24 C17         7.7212    3.8428    8.7067 C.3       1 <0>        -0.1445
     25 C18         8.8785    3.9827    7.7157 C.3       1 <0>        -0.1544
     26 C19         2.8133   -3.0355   -1.4271 C.3       1 <0>        -0.0925
     27 H1          3.6495    1.9781   -1.2941 H         1 <0>         0.0914
     28 H2          2.7472    2.7326   -2.6301 H         1 <0>         0.0379
     29 H3          2.8008    3.5211   -1.0352 H         1 <0>         0.0369
     30 H4          1.5283    1.6307   -0.0577 H         1 <0>         0.0765
     31 H5          0.6260    2.3852   -1.3937 H         1 <0>         0.0416
     32 H6          0.2292    1.2045   -3.4364 H         1 <0>         0.1016
     33 H7          0.1506   -0.9585   -4.6074 H         1 <0>         0.1007
     34 H8          1.3380   -2.9069   -3.6846 H         1 <0>         0.1006
     35 H9          5.0460   -2.4276    2.2506 H         1 <0>         0.1511
     36 H10         5.8534   -1.7332    4.4846 H         1 <0>         0.1423
     37 H11         6.6652   -0.6779    6.5485 H         1 <0>         0.1918
     38 H12         6.9650    4.6868    6.7610 H         1 <0>         0.1356
     39 H13         7.4189    4.7340    9.2565 H         1 <0>         0.1083
     40 H14         7.6361    2.9026    9.2515 H         1 <0>         0.1116
     41 H15         9.5548    3.1346    7.6086 H         1 <0>         0.1021
     42 H16         9.3376    4.9660    7.6136 H         1 <0>         0.1090
     43 H17         3.7878   -3.1279   -1.9065 H         1 <0>         0.0712
     44 H18         2.9475   -2.9049   -0.3533 H         1 <0>         0.0752
     45 H19         2.2298   -3.9371   -1.6133 H         1 <0>         0.0320
@<TRIPOS>BOND
     1    1    2 1
     2    1   27 1
     3    1   28 1
     4    1   29 1
     5    2    3 1
     6    2   30 1
     7    2   31 1
     8    3    8 ar
     9    3    4 ar
    10    4    5 ar
    11    4   32 1
    12    5    6 ar
    13    5   33 1
    14    6    7 ar
    15    6   34 1
    16    7    8 ar
    17    7   26 1
    18    8    9 1
    19    9   10 1
    20   10   11 2
    21   10   12 2
    22   10   13 1
    23   13   17 1
    24   13   14 2
    25   14   15 1
    26   14   35 1
    27   15   16 2
    28   15   36 1
    29   16   17 1
    30   16   18 1
    31   18   22 1
    32   18   19 2
    33   19   20 1
    34   19   37 1
    35   20   21 2
    36   21   22 1
    37   21   23 1
    38   23   25 1
    39   23   24 1
    40   23   38 1
    41   24   25 1
    42   24   39 1
    43   24   40 1
    44   25   41 1
    45   25   42 1
    46   26   43 1
    47   26   44 1
    48   26   45 1
@<TRIPOS>MOLECULE
ZINC55559622
   37    39     0     0     0
SMALL
USER_CHARGES

@<TRIPOS>ATOM
      1 C1         -1.0387    1.2249   -0.3439 C.3       1 <0>        -0.1123
      2 C2         -0.4086   -0.1386   -0.2218 C.ar      1 <0>        -0.0820
      3 C3          0.2055   -0.7161   -1.3191 C.ar      1 <0>        -0.1255
      4 C4          0.7863   -1.9673   -1.2155 C.ar      1 <0>        -0.1080
      5 C5          0.7569   -2.6477   -0.0155 C.ar      1 <0>        -0.1337
      6 C6          0.1396   -2.0708    1.0952 C.ar      1 <0>         0.0271
      7 C7         -0.4404   -0.8058    0.9851 C.ar      1 <0>        -0.0882
      8 C8          0.1043   -2.7941    2.3841 C.2       1 <0>         0.1518
      9 N1         -0.0989   -2.2671    3.5690 N.2       1 <0>        -0.2642
     10 N2         -0.0649   -3.1842    4.4687 N.2       1 <0>        -0.3374
     11 C9          0.1623   -4.3535    3.9128 C.2       1 <0>         0.3898
     12 S1          0.2928   -5.8998    4.7473 S.3       1 <0>        -0.7850
     13 N3          0.2725   -4.1473    2.5673 N.pl3     1 <0>        -0.4817
     14 C10         0.5211   -5.1562    1.5346 C.3       1 <0>         0.1344
     15 C11         2.0064   -5.3467    1.3657 C.2       1 <0>         0.4495
     16 O1          2.7782   -4.7055    2.0390 O.2       1 <0>        -0.4516
     17 O2          2.4722   -6.2289    0.4672 O.3       1 <0>        -0.2918
     18 C12         3.8127   -6.4513    0.4269 C.ar      1 <0>         0.1132
     19 C13         4.5956   -5.8069   -0.5195 C.ar      1 <0>        -0.0996
     20 C14         5.9587   -6.0348   -0.5585 C.ar      1 <0>        -0.0230
     21 C15         6.5420   -6.9055    0.3454 C.ar      1 <0>        -0.0959
     22 C16         5.7638   -7.5488    1.2895 C.ar      1 <0>        -0.0872
     23 C17         4.4011   -7.3194    1.3364 C.ar      1 <0>        -0.0412
     24 Cl1         3.4256   -8.1220    2.5273 Cl        1 <0>        -0.0191
     25 Cl2         6.9392   -5.2286   -1.7427 Cl        1 <0>        -0.0550
     26 H1         -0.2984    1.9896   -0.1088 H         1 <0>         0.0702
     27 H2         -1.3989    1.3688   -1.3625 H         1 <0>         0.0648
     28 H3         -1.8746    1.3025    0.3514 H         1 <0>         0.0679
     29 H4          0.2313   -0.1877   -2.2607 H         1 <0>         0.1213
     30 H5          1.2635   -2.4128   -2.0759 H         1 <0>         0.1235
     31 H6          1.2104   -3.6247    0.0640 H         1 <0>         0.1104
     32 H7         -0.9161   -0.3521    1.8420 H         1 <0>         0.1344
     33 H8          0.0651   -6.1005    1.8319 H         1 <0>         0.1445
     34 H9          0.0877   -4.8247    0.5910 H         1 <0>         0.1301
     35 H10         4.1407   -5.1279   -1.2255 H         1 <0>         0.1497
     36 H11         7.6068   -7.0828    0.3130 H         1 <0>         0.1481
     37 H12         6.2212   -8.2278    1.9938 H         1 <0>         0.1519
@<TRIPOS>BOND
     1    1    2 1
     2    1   26 1
     3    1   27 1
     4    1   28 1
     5    2    7 ar
     6    2    3 ar
     7    3    4 ar
     8    3   29 1
     9    4    5 ar
    10    4   30 1
    11    5    6 ar
    12    5   31 1
    13    6    7 ar
    14    6    8 1
    15    7   32 1
    16    8   13 1
    17    8    9 2
    18    9   10 1
    19   10   11 2
    20   11   12 1
    21   11   13 1
    22   13   14 1
    23   14   15 1
    24   14   33 1
    25   14   34 1
    26   15   16 2
    27   15   17 1
    28   17   18 1
    29   18   23 ar
    30   18   19 ar
    31   19   20 ar
    32   19   35 1
    33   20   21 ar
    34   20   25 1
    35   21   22 ar
    36   21   36 1
    37   22   23 ar
    38   22   37 1
    39   23   24 1
@<TRIPOS>MOLECULE
ZINC15083346
   43    46     0     0     0
SMALL
USER_CHARGES
2-(2-morpholinoethylsulfanyl)-8-phenyl-3H-pyrazolo[5,1-f][1,3,5]triazin-4-one
@<TRIPOS>ATOM
      1 C1          2.3433    5.6328   -4.2534 C.ar      1 <0>        -0.1386
      2 C2          3.5559    4.9713   -4.1751 C.ar      1 <0>        -0.1230
      3 C3          3.5961    3.5925   -4.2062 C.ar      1 <0>        -0.1174
      4 C4          2.4109    2.8655   -4.3172 C.ar      1 <0>         0.0462
      5 C5          1.1920    3.5382   -4.4014 C.ar      1 <0>        -0.1025
      6 C6          1.1644    4.9172   -4.3636 C.ar      1 <0>        -0.1203
      7 C7          2.4471    1.3850   -4.3516 C.2       1 <0>        -0.2724
      8 C8          3.0235    0.5873   -5.3561 C.2       1 <0>         0.0912
      9 N1          2.8586   -0.6702   -5.0406 N.2       1 <0>        -0.3076
     10 N2          2.1723   -0.7541   -3.8246 N.pl3     1 <0>        -0.3924
     11 C9          1.9162    0.5229   -3.3958 C.2       1 <0>         0.3475
     12 N3          1.2601    0.7303   -2.2389 N.2       1 <0>        -0.6014
     13 C10         0.8594   -0.2901   -1.5105 C.2       1 <0>         0.3672
     14 N4          1.1109   -1.5766   -1.9204 N.2       1 <0>        -0.6387
     15 C11         1.7626   -1.8005   -3.0798 C.2       1 <0>         0.6650
     16 O1          1.9834   -2.9378   -3.4482 O.3       1 <0>        -0.5614
     17 S1          0.0021   -0.0041    0.0020 S.3       1 <0>        -0.0071
     18 C12        -0.0225    1.8057    0.0120 C.3       1 <0>        -0.1048
     19 C13        -0.7386    2.2992    1.2708 C.3       1 <0>         0.0697
     20 N5         -0.7585    3.7680    1.2789 N.3       1 <0>        -0.5298
     21 C14         0.5996    4.3125    1.4210 C.3       1 <0>         0.0116
     22 C15         0.5392    5.8413    1.3647 C.3       1 <0>         0.0631
     23 O2         -0.3441    6.3163    2.3843 O.3       1 <0>        -0.3881
     24 C16        -1.6758    5.8062    2.2759 C.3       1 <0>         0.0628
     25 C17        -1.6377    4.2771    2.3414 C.3       1 <0>         0.0172
     26 H1          2.3169    6.7122   -4.2279 H         1 <0>         0.1119
     27 H2          4.4729    5.5354   -4.0892 H         1 <0>         0.1136
     28 H3          4.5432    3.0772   -4.1444 H         1 <0>         0.1158
     29 H4          0.2714    2.9808   -4.4920 H         1 <0>         0.1142
     30 H5          0.2209    5.4392   -4.4246 H         1 <0>         0.1137
     31 H6          3.5207    0.9535   -6.2422 H         1 <0>         0.1802
     32 H7          1.0095    2.1865    0.0042 H         1 <0>         0.0939
     33 H8         -0.5545    2.1701   -0.8791 H         1 <0>         0.1036
     34 H9         -1.7706    1.9185    1.2786 H         1 <0>         0.0855
     35 H10        -0.2066    1.9348    2.1620 H         1 <0>         0.0442
     36 H11         1.0226    3.9956    2.3857 H         1 <0>         0.0431
     37 H12         1.2322    3.9382    0.6026 H         1 <0>         0.0951
     38 H13         1.5457    6.2542    1.5272 H         1 <0>         0.0986
     39 H14         0.1680    6.1575    0.3787 H         1 <0>         0.0624
     40 H15        -2.2861    6.1955    3.1041 H         1 <0>         0.0971
     41 H16        -2.1131    6.1233    1.3177 H         1 <0>         0.0606
     42 H17        -2.6526    3.8767    2.2007 H         1 <0>         0.0877
     43 H18        -1.2508    3.9597    3.3210 H         1 <0>         0.0428
@<TRIPOS>BOND
     1    1    6 ar
     2    1    2 ar
     3    1   26 1
     4    2    3 ar
     5    2   27 1
     6    3    4 ar
     7    3   28 1
     8    4    5 ar
     9    4    7 1
    10    5    6 ar
    11    5   29 1
    12    6   30 1
    13    7   11 2
    14    7    8 1
    15    8    9 2
    16    8   31 1
    17    9   10 1
    18   10   15 1
    19   10   11 1
    20   11   12 1
    21   12   13 2
    22   13   14 1
    23   13   17 1
    24   14   15 2
    25   15   16 1
    26   17   18 1
    27   18   19 1
    28   18   32 1
    29   18   33 1
    30   19   20 1
    31   19   34 1
    32   19   35 1
    33   20   25 1
    34   20   21 1
    35   21   22 1
    36   21   36 1
    37   21   37 1
    38   22   23 1
    39   22   38 1
    40   22   39 1
    41   23   24 1
    42   24   25 1
    43   24   40 1
    44   24   41 1
    45   25   42 1
    46   25   43 1
@<TRIPOS>MOLECULE
ZINC44025389
   45    47     0     0     0
SMALL
USER_CHARGES

@<TRIPOS>ATOM
      1 C1          0.2594    1.9207   -0.0457 C.3       1 <0>        -0.1599
      2 C2         -0.0633    0.4414   -0.2657 C.3       1 <0>         0.1790
      3 C3          0.3678   -0.3628    0.9624 C.3       1 <0>        -0.1612
      4 C4         -1.5687    0.2744   -0.4819 C.3       1 <0>        -0.1425
      5 N1          0.6564   -0.0452   -1.4453 N.pl3     1 <0>        -0.3597
      6 C5          1.9724   -0.3243   -1.5054 C.2       1 <0>         0.0788
      7 C6          2.2448   -0.7527   -2.7887 C.2       1 <0>        -0.2167
      8 C7          1.0288   -0.7206   -3.5070 C.2       1 <0>         0.0589
      9 N2          0.0917   -0.3047   -2.6992 N.2       1 <0>        -0.3042
     10 C8          3.5586   -1.1660   -3.3120 C.2       1 <0>        -0.0041
     11 C9          3.6429   -1.7920   -4.4997 C.2       1 <0>        -0.0245
     12 C10         4.9601   -2.0660   -5.0950 C.ar      1 <0>         0.4043
     13 N3          6.0556   -1.6868   -4.4312 N.ar      1 <0>        -0.6238
     14 C11         7.2641   -1.9058   -4.9154 C.ar      1 <0>         0.4715
     15 O1          8.3648   -1.5165   -4.2318 O.3       1 <0>        -0.6623
     16 C12         7.3816   -2.5590   -6.1685 C.ar      1 <0>        -0.2049
     17 C13         8.6289   -2.8260   -6.7454 C.ar      1 <0>        -0.0359
     18 C14         8.6988   -3.4557   -7.9502 C.ar      1 <0>        -0.1430
     19 C15         7.5313   -3.8435   -8.6276 C.ar      1 <0>        -0.0961
     20 C16         6.2830   -3.5915   -8.0802 C.ar      1 <0>        -0.0582
     21 C17         6.1942   -2.9445   -6.8394 C.ar      1 <0>         0.1817
     22 N4          5.0131   -2.6832   -6.2643 N.ar      1 <0>        -0.5842
     23 C18         7.6345   -4.5257   -9.9355 C.2       1 <0>         0.5127
     24 O2          6.6280   -4.8632  -10.5255 O.2       1 <0>        -0.5093
     25 O3          8.8448   -4.7729  -10.4726 O.3       1 <0>        -0.3486
     26 C19         8.8697   -5.4353  -11.7385 C.3       1 <0>         0.0348
     27 Cl1         2.1974   -2.2764   -5.3301 Cl        1 <0>        -0.0596
     28 H1          1.3319    2.0396    0.1083 H         1 <0>         0.0646
     29 H2         -0.0478    2.4936   -0.9207 H         1 <0>         0.0656
     30 H3         -0.2760    2.2828    0.8320 H         1 <0>         0.0762
     31 H4         -0.1676   -0.0007    1.8401 H         1 <0>         0.0795
     32 H5          0.1380   -1.4167    0.8057 H         1 <0>         0.0670
     33 H6          1.4403   -0.2439    1.1164 H         1 <0>         0.0669
     34 H7         -1.8759    0.8474   -1.3568 H         1 <0>         0.0715
     35 H8         -1.7986   -0.7794   -0.6386 H         1 <0>         0.0649
     36 H9         -2.1042    0.6365    0.3958 H         1 <0>         0.0698
     37 H10         2.6837   -0.2302   -0.6981 H         1 <0>         0.1767
     38 H11         0.8968   -0.9959   -4.5429 H         1 <0>         0.1985
     39 H12         4.4540   -0.9665   -2.7420 H         1 <0>         0.1582
     40 H13         9.5345   -2.5324   -6.2353 H         1 <0>         0.1325
     41 H14         9.6637   -3.6592   -8.3907 H         1 <0>         0.1283
     42 H15         5.3873   -3.8906   -8.6044 H         1 <0>         0.1402
     43 H16         8.3848   -6.4074  -11.6495 H         1 <0>         0.0586
     44 H17         8.3403   -4.8312  -12.4752 H         1 <0>         0.0586
     45 H18         9.9033   -5.5727  -12.0564 H         1 <0>         0.0996
@<TRIPOS>BOND
     1    1    2 1
     2    1   28 1
     3    1   29 1
     4    1   30 1
     5    2    3 1
     6    2    4 1
     7    2    5 1
     8    3   31 1
     9    3   32 1
    10    3   33 1
    11    4   34 1
    12    4   35 1
    13    4   36 1
    14    5    9 1
    15    5    6 1
    16    6    7 2
    17    6   37 1
    18    7    8 1
    19    7   10 1
    20    8    9 2
    21    8   38 1
    22   10   11 2
    23   10   39 1
    24   11   12 1
    25   11   27 1
    26   12   22 ar
    27   12   13 ar
    28   13   14 ar
    29   14   15 1
    30   14   16 ar
    31   16   21 ar
    32   16   17 ar
    33   17   18 ar
    34   17   40 1
    35   18   19 ar
    36   18   41 1
    37   19   20 ar
    38   19   23 1
    39   20   21 ar
    40   20   42 1
    41   21   22 ar
    42   23   24 2
    43   23   25 1
    44   25   26 1
    45   26   43 1
    46   26   44 1
    47   26   45 1
@<TRIPOS>MOLECULE
ZINC57126389
   41    43     0     0     0
SMALL
USER_CHARGES

@<TRIPOS>ATOM
      1 C1          0.2228    1.4943    0.0127 C.3       1 <0>        -0.0993
      2 C2         -0.2008    0.0481    0.0138 C.ar      1 <0>        -0.0610
      3 C3         -0.5047   -0.5833   -1.1764 C.ar      1 <0>        -0.1513
      4 C4         -0.8949   -1.9158   -1.1751 C.ar      1 <0>         0.2640
      5 C5         -0.9793   -2.6129    0.0232 C.ar      1 <0>        -0.2343
      6 C6         -0.6751   -1.9804    1.2123 C.ar      1 <0>        -0.1255
      7 C7         -0.2798   -0.6503    1.2097 C.ar      1 <0>         0.0043
      8 O1          0.0254   -0.0298    2.3805 O.3       1 <0>        -0.2637
      9 C8         -0.0637   -0.7526    3.5277 C.ar      1 <0>         0.0600
     10 C9          1.0355   -1.4622    4.0021 C.ar      1 <0>        -0.0904
     11 C10         0.8961   -2.1844    5.1759 C.ar      1 <0>        -0.1602
     12 C11        -0.3205   -2.1768    5.8328 C.ar      1 <0>         0.0850
     13 N1         -1.3427   -1.4937    5.3564 N.ar      1 <0>        -0.4709
     14 C12        -1.2501   -0.7891    4.2460 C.ar      1 <0>         0.0896
     15 N2         -1.2035   -2.5560   -2.3805 N.2       1 <0>        -1.0902
     16 S1         -1.6688   -4.1453   -2.3785 S.o2      1 <0>         2.6302
     17 O2         -0.5424   -4.8977   -1.9491 O.2       1 <0>        -1.0292
     18 O3         -2.9216   -4.2008   -1.7102 O.2       1 <0>        -1.0254
     19 C13        -1.9707   -4.6018   -4.0533 C.2       1 <0>        -0.7826
     20 C14        -3.1984   -4.4914   -4.7306 C.2       1 <0>         0.1841
     21 N3         -3.0294   -4.9261   -5.9472 N.2       1 <0>        -0.3349
     22 O4         -1.6786   -5.3296   -6.0822 O.3       1 <0>        -0.0901
     23 C15        -1.0644   -5.1118   -4.9093 C.2       1 <0>         0.1915
     24 C16         0.3841   -5.3921   -4.6024 C.3       1 <0>        -0.1049
     25 C17        -4.4848   -3.9630   -4.1502 C.3       1 <0>        -0.1123
     26 H1          1.3061    1.5556   -0.0907 H         1 <0>         0.0607
     27 H2         -0.2516    2.0111   -0.8216 H         1 <0>         0.0602
     28 H3         -0.0799    1.9623    0.9494 H         1 <0>         0.0620
     29 H4         -0.4392   -0.0405   -2.1078 H         1 <0>         0.1226
     30 H5         -1.2831   -3.6493    0.0250 H         1 <0>         0.1011
     31 H6         -0.7410   -2.5221    2.1442 H         1 <0>         0.1042
     32 H7          1.9740   -1.4505    3.4679 H         1 <0>         0.1409
     33 H8          1.7279   -2.7471    5.5732 H         1 <0>         0.1379
     34 H9         -0.4352   -2.7383    6.7482 H         1 <0>         0.1572
     35 H10        -2.1080   -0.2384    3.8893 H         1 <0>         0.1613
     36 H11         0.4853   -6.4097   -4.2251 H         1 <0>         0.1062
     37 H12         0.9761   -5.2809   -5.5109 H         1 <0>         0.0896
     38 H13         0.7387   -4.6884   -3.8493 H         1 <0>         0.1173
     39 H14        -4.5422   -2.8868   -4.3138 H         1 <0>         0.0953
     40 H15        -5.3300   -4.4500   -4.6367 H         1 <0>         0.0798
     41 H16        -4.5128   -4.1698   -3.0804 H         1 <0>         0.1211
@<TRIPOS>BOND
     1    1    2 1
     2    1   26 1
     3    1   27 1
     4    1   28 1
     5    2    7 ar
     6    2    3 ar
     7    3    4 ar
     8    3   29 1
     9    4    5 ar
    10    4   15 1
    11    5    6 ar
    12    5   30 1
    13    6    7 ar
    14    6   31 1
    15    7    8 1
    16    8    9 1
    17    9   14 ar
    18    9   10 ar
    19   10   11 ar
    20   10   32 1
    21   11   12 ar
    22   11   33 1
    23   12   13 ar
    24   12   34 1
    25   13   14 ar
    26   14   35 1
    27   15   16 1
    28   16   17 2
    29   16   18 2
    30   16   19 1
    31   19   23 2
    32   19   20 1
    33   20   21 2
    34   20   25 1
    35   21   22 1
    36   22   23 1
    37   23   24 1
    38   24   36 1
    39   24   37 1
    40   24   38 1
    41   25   39 1
    42   25   40 1
    43   25   41 1
@<TRIPOS>MOLECULE
ZINC64924369
   44    47     0     0     0
SMALL
USER_CHARGES

@<TRIPOS>ATOM
      1 C1         -0.0184    1.5028    0.0103 C.3       1 <0>        -0.1102
      2 C2          0.0021   -0.0041    0.0020 C.ar      1 <0>        -0.0378
      3 C3          0.0057   -0.6881   -1.1998 C.ar      1 <0>        -0.2212
      4 C4          0.0240   -2.0708   -1.2119 C.ar      1 <0>        -0.0525
      5 C5          0.0391   -2.7732   -0.0230 C.ar      1 <0>        -0.1847
      6 C6          0.0360   -2.0892    1.1861 C.ar      1 <0>         0.2816
      7 C7          0.0229   -0.7002    1.1946 C.ar      1 <0>        -0.2657
      8 N1          0.0513   -2.7964    2.3904 N.2       1 <0>        -1.0908
      9 S1          0.0475   -1.9792    3.8307 S.o2      1 <0>         2.6168
     10 O1          1.2841   -1.2832    3.9060 O.2       1 <0>        -1.0258
     11 O2         -1.2063   -1.3162    3.9182 O.2       1 <0>        -1.0278
     12 C8          0.0698   -3.1858    5.1145 C.2       1 <0>        -0.6737
     13 C9         -0.9421   -3.5576    5.8911 C.2       1 <0>         0.1164
     14 N2         -0.5837   -4.5131    6.7802 N.2       1 <0>        -0.4587
     15 C10         0.6553   -4.8606    6.6890 C.2       1 <0>         0.1435
     16 C11         1.2473   -4.0294    5.5673 C.3       1 <0>        -0.0799
     17 C12         1.3697   -5.8907    7.5254 C.3       1 <0>         0.2038
     18 H1          1.3831   -6.8515    7.0109 H         1 <0>         0.1432
     19 N3          2.7399   -5.4494    7.8164 N.2       1 <0>        -0.1297
     20 N4          3.0069   -5.6491    9.0085 N.2       1 <0>        -0.1322
     21 C13         1.8543   -6.2531    9.6893 C.3       1 <0>         0.1546
     22 H2          1.6888   -5.7708   10.6527 H         1 <0>         0.1414
     23 O3          0.7306   -6.0210    8.8123 O.3       1 <0>        -0.3437
     24 C14         2.0776   -7.7547    9.8799 C.3       1 <0>        -0.1815
     25 C15         1.8494   -8.3309   11.2788 C.3       1 <0>        -0.1597
     26 C16         3.2715   -8.1887   10.7326 C.3       1 <0>        -0.1580
     27 C17         0.0269   -2.8120   -2.5241 C.3       1 <0>        -0.1041
     28 H3          1.0042    1.8801    0.0026 H         1 <0>         0.0619
     29 H4         -0.5455    1.8639   -0.8728 H         1 <0>         0.0577
     30 H5         -0.5286    1.8543    0.9071 H         1 <0>         0.0581
     31 H6         -0.0061   -0.1413   -2.1310 H         1 <0>         0.1002
     32 H7          0.0530   -3.8531   -0.0331 H         1 <0>         0.1098
     33 H8          0.0244   -0.1652    2.1328 H         1 <0>         0.0954
     34 H9         -1.9373   -3.1440    5.8213 H         1 <0>         0.1749
     35 H10         1.5997   -4.6669    4.7565 H         1 <0>         0.1404
     36 H11         2.0532   -3.3979    5.9413 H         1 <0>         0.1362
     37 H12         1.8133   -8.3812    9.0280 H         1 <0>         0.1162
     38 H13         1.5402   -7.6402   12.0633 H         1 <0>         0.1010
     39 H14         1.4348   -9.3366   11.3474 H         1 <0>         0.1027
     40 H15         3.7925   -9.1010   10.4418 H         1 <0>         0.1025
     41 H16         3.8979   -7.4046   11.1577 H         1 <0>         0.1059
     42 H17         1.0551   -2.9771   -2.8458 H         1 <0>         0.0599
     43 H18        -0.4736   -3.7723   -2.4000 H         1 <0>         0.0581
     44 H19        -0.4988   -2.2227   -3.2754 H         1 <0>         0.0554
@<TRIPOS>BOND
     1    1    2 1
     2    1   28 1
     3    1   29 1
     4    1   30 1
     5    2    7 ar
     6    2    3 ar
     7    3    4 ar
     8    3   31 1
     9    4    5 ar
    10    4   27 1
    11    5    6 ar
    12    5   32 1
    13    6    7 ar
    14    6    8 1
    15    7   33 1
    16    8    9 1
    17    9   10 2
    18    9   11 2
    19    9   12 1
    20   12   16 1
    21   12   13 2
    22   13   14 1
    23   13   34 1
    24   14   15 2
    25   15   16 1
    26   15   17 1
    27   16   35 1
    28   16   36 1
    29   17   18 1
    30   17   23 1
    31   17   19 1
    32   19   20 2
    33   20   21 1
    34   21   22 1
    35   21   23 1
    36   21   24 1
    37   24   26 1
    38   24   25 1
    39   24   37 1
    40   25   26 1
    41   25   38 1
    42   25   39 1
    43   26   40 1
    44   26   41 1
    45   27   42 1
    46   27   43 1
    47   27   44 1
@<TRIPOS>MOLECULE
ZINC66867948
   38    40     0     0     0
SMALL
USER_CHARGES

@<TRIPOS>ATOM
      1 C1         -0.0438    1.4603    0.0124 C.3       1 <0>         0.0742
      2 N1         -0.0094   -0.0043    0.0031 N.pl3     1 <0>        -0.4966
      3 C2         -0.0869   -0.8293   -1.0923 C.2       1 <0>         0.1466
      4 N2         -0.0181   -2.0665   -0.6528 N.2       1 <0>        -0.2725
      5 N3          0.0959   -2.0740    0.6272 N.2       1 <0>        -0.2835
      6 C3          0.1130   -0.8373    1.0856 C.2       1 <0>         0.3376
      7 C4          0.2362   -0.4284    2.4938 C.2       1 <0>        -0.3175
      8 C5          0.2352    0.9614    2.8386 C.1       1 <0>         0.2775
      9 N4          0.2345    2.0640    3.1121 N.1       1 <0>        -0.5004
     10 C6          0.3535   -1.3915    3.4895 C.2       1 <0>         0.3791
     11 O1          0.3543   -2.7047    3.1638 O.3       1 <0>        -0.5842
     12 C7          0.4759   -0.9851    4.8894 C.2       1 <0>        -0.0488
     13 C8          0.5930   -1.9465    5.8833 C.2       1 <0>         0.0141
     14 C9          0.7108   -1.5557    7.2296 C.2       1 <0>        -0.0065
     15 C10         0.8396   -2.4026    8.3179 C.2       1 <0>        -0.1653
     16 C11         0.9251   -1.5838    9.4513 C.2       1 <0>        -0.2195
     17 C12         0.8476   -0.3011    9.0268 C.2       1 <0>        -0.0250
     18 O2          0.7244   -0.2873    7.6925 O.3       1 <0>        -0.1596
     19 C13         0.4750    0.4047    5.2341 C.1       1 <0>         0.2378
     20 N5          0.4743    1.5073    5.5077 N.1       1 <0>        -0.3944
     21 C14        -0.2224   -0.4055   -2.5016 C.ar      1 <0>         0.0187
     22 C15        -0.7179   -1.2950   -3.4567 C.ar      1 <0>        -0.0877
     23 C16        -0.8423   -0.8929   -4.7704 C.ar      1 <0>        -0.1169
     24 C17        -0.4769    0.3888   -5.1423 C.ar      1 <0>        -0.1260
     25 C18         0.0154    1.2753   -4.2009 C.ar      1 <0>        -0.1169
     26 C19         0.1390    0.8880   -2.8826 C.ar      1 <0>        -0.1272
     27 H1          0.9739    1.8479   -0.0342 H         1 <0>         0.0702
     28 H2         -0.6079    1.8160   -0.8497 H         1 <0>         0.0851
     29 H3         -0.5229    1.8066    0.9282 H         1 <0>         0.0880
     30 H4          0.5937   -2.9948    5.6233 H         1 <0>         0.1831
     31 H5          0.8682   -3.4820    8.2969 H         1 <0>         0.1585
     32 H6          1.0325   -1.9147   10.4737 H         1 <0>         0.1509
     33 H7          0.8836    0.5719    9.6615 H         1 <0>         0.2003
     34 H8         -1.0029   -2.2959   -3.1678 H         1 <0>         0.1348
     35 H9         -1.2255   -1.5800   -5.5102 H         1 <0>         0.1248
     36 H10        -0.5759    0.6985   -6.1722 H         1 <0>         0.1200
     37 H11         0.2995    2.2740   -4.4980 H         1 <0>         0.1220
     38 H12         0.5188    1.5825   -2.1479 H         1 <0>         0.1251
@<TRIPOS>BOND
     1    1    2 1
     2    1   27 1
     3    1   28 1
     4    1   29 1
     5    2    6 1
     6    2    3 1
     7    3    4 2
     8    3   21 1
     9    4    5 1
    10    5    6 2
    11    6    7 1
    12    7    8 1
    13    7   10 2
    14    8    9 3
    15   10   11 1
    16   10   12 1
    17   12   13 2
    18   12   19 1
    19   13   14 1
    20   13   30 1
    21   14   18 1
    22   14   15 2
    23   15   16 1
    24   15   31 1
    25   16   17 2
    26   16   32 1
    27   17   18 1
    28   17   33 1
    29   19   20 3
    30   21   26 ar
    31   21   22 ar
    32   22   23 ar
    33   22   34 1
    34   23   24 ar
    35   23   35 1
    36   24   25 ar
    37   24   36 1
    38   25   26 ar
    39   25   37 1
    40   26   38 1
@<TRIPOS>MOLECULE
ZINC17082216
   50    52     0     0     0
SMALL
USER_CHARGES
4-oxo-4-[[3-(3-pyridylmethylcarbamoyl)-5,6,7,8-tetrahydro-4H-cyclohepta[d]thiophen-2-yl]amino]butanoic acid
@<TRIPOS>ATOM
      1 C1         -2.4006    1.3310   -2.9034 C.ar      1 <0>        -0.1755
      2 C2         -1.7541    0.8295   -1.7837 C.ar      1 <0>        -0.0560
      3 C3         -0.7416    1.5850   -1.2129 C.ar      1 <0>        -0.1616
      4 C4         -0.4052    2.7994   -1.7810 C.ar      1 <0>         0.1212
      5 N1         -1.0387    3.2429   -2.8490 N.ar      1 <0>        -0.4828
      6 C5         -2.0102    2.5537   -3.4152 C.ar      1 <0>         0.1050
      7 C6         -0.0127    1.0858    0.0080 C.3       1 <0>         0.1640
      8 N2         -0.6984    1.5583    1.2133 N.am      1 <0>        -0.7228
      9 C7         -0.2219    1.2324    2.4312 C.2       1 <0>         0.5864
     10 O1          0.7781    0.5456    2.5297 O.2       1 <0>        -0.5296
     11 C8         -0.9082    1.7053    3.6376 C.2       1 <0>        -0.2487
     12 C9         -1.9705    0.9230    4.2554 C.2       1 <0>        -0.0586
     13 C10        -2.5170    1.4763    5.3585 C.2       1 <0>        -0.2179
     14 S1         -1.6491    3.0058    5.5790 S.3       1 <0>         0.2277
     15 C11        -0.5723    2.9144    4.2257 C.2       1 <0>         0.0936
     16 N3          0.3908    3.8288    3.8272 N.am      1 <0>        -0.6270
     17 C12         0.5766    4.9624    4.5321 C.2       1 <0>         0.5082
     18 O2         -0.0988    5.1826    5.5152 O.2       1 <0>        -0.4973
     19 C13         1.6234    5.9561    4.0990 C.3       1 <0>        -0.1124
     20 C14         1.6286    7.1442    5.0631 C.3       1 <0>        -0.1429
     21 C15         2.6754    8.1380    4.6299 C.2       1 <0>         0.4612
     22 O3          3.3482    7.9185    3.6506 O.co2     1 <0>        -0.6430
     23 C16        -3.6246    0.9308    6.2047 C.3       1 <0>        -0.0344
     24 C17        -3.3210   -0.5328    6.5521 C.3       1 <0>        -0.1157
     25 C18        -3.9121   -1.4214    5.4620 C.3       1 <0>        -0.1199
     26 C19        -3.8525   -0.7078    4.1128 C.3       1 <0>        -0.1232
     27 C20        -2.4058   -0.4343    3.7165 C.3       1 <0>        -0.0546
     28 H1         -3.1964    0.7709   -3.3719 H         1 <0>         0.1369
     29 H2         -2.0354   -0.1250   -1.3641 H         1 <0>         0.1358
     30 H3          0.3855    3.3919   -1.3450 H         1 <0>         0.1591
     31 H4         -2.5062    2.9494   -4.2891 H         1 <0>         0.1572
     32 H5          0.0021   -0.0041    0.0020 H         1 <0>         0.0793
     33 H6          1.0099    1.4631    0.0003 H         1 <0>         0.0825
     34 H7         -1.4954    2.1056    1.1349 H         1 <0>         0.4033
     35 H8          0.9310    3.6526    3.0409 H         1 <0>         0.4196
     36 H9          2.6030    5.4782    4.1059 H         1 <0>         0.1025
     37 H10         1.3971    6.3065    3.0919 H         1 <0>         0.1021
     38 H11         0.6490    7.6221    5.0561 H         1 <0>         0.0737
     39 H12         1.8549    6.7939    6.0701 H         1 <0>         0.0739
     40 H13        -3.7030    1.5140    7.1222 H         1 <0>         0.0735
     41 H14        -4.5643    0.9872    5.6551 H         1 <0>         0.0861
     42 H15        -2.2423   -0.6814    6.6009 H         1 <0>         0.0684
     43 H16        -3.7719   -0.7823    7.5126 H         1 <0>         0.0686
     44 H17        -3.3441   -2.3499    5.4052 H         1 <0>         0.0618
     45 H18        -4.9500   -1.6492    5.7048 H         1 <0>         0.0622
     46 H19        -4.3211   -1.3341    3.3537 H         1 <0>         0.0624
     47 H20        -4.3914    0.2371    4.1815 H         1 <0>         0.0745
     48 H21        -1.7643   -1.2141    4.1270 H         1 <0>         0.0766
     49 H22        -2.3225   -0.4319    2.6297 H         1 <0>         0.0648
     50 O4          2.8604    9.2669    5.3320 O.co2     1 <0>        -0.7680
@<TRIPOS>BOND
     1    1    6 ar
     2    1    2 ar
     3    1   28 1
     4    2    3 ar
     5    2   29 1
     6    3    4 ar
     7    3    7 1
     8    4    5 ar
     9    4   30 1
    10    5    6 ar
    11    6   31 1
    12    7    8 1
    13    7   32 1
    14    7   33 1
    15    8    9 am
    16    8   34 1
    17    9   10 2
    18    9   11 1
    19   11   15 2
    20   11   12 1
    21   12   27 1
    22   12   13 2
    23   13   14 1
    24   13   23 1
    25   14   15 1
    26   15   16 1
    27   16   17 am
    28   16   35 1
    29   17   18 2
    30   17   19 1
    31   19   20 1
    32   19   36 1
    33   19   37 1
    34   20   21 1
    35   20   38 1
    36   20   39 1
    37   21   22 2
    38   21   50 1
    39   23   24 1
    40   23   40 1
    41   23   41 1
    42   24   25 1
    43   24   42 1
    44   24   43 1
    45   25   26 1
    46   25   44 1
    47   25   45 1
    48   26   27 1
    49   26   46 1
    50   26   47 1
    51   27   48 1
    52   27   49 1
@<TRIPOS>MOLECULE
ZINC01951062
   40    41     0     0     0
SMALL
USER_CHARGES

@<TRIPOS>ATOM
      1 C1         -0.0187    1.5258    0.0104 C.3       1 <0>        -0.1666
      2 C2          0.0021   -0.0041    0.0020 C.3       1 <0>         0.1630
      3 H1          0.5123   -0.3556   -0.8948 H         1 <0>         0.0931
      4 C3          0.7421   -0.5109    1.2415 C.3       1 <0>        -0.0489
      5 C4          0.8700   -2.0108    1.1719 C.2       1 <0>        -0.1722
      6 C5          1.9167   -2.7648    0.4778 C.ar      1 <0>        -0.0991
      7 C6          3.0349   -2.4038   -0.2758 C.ar      1 <0>        -0.0703
      8 C7          3.8390   -3.3743   -0.8043 C.ar      1 <0>        -0.1469
      9 C8          3.5526   -4.7166   -0.5982 C.ar      1 <0>        -0.1000
     10 C9          2.4540   -5.0951    0.1424 C.ar      1 <0>        -0.1303
     11 C10         1.6222   -4.1242    0.6900 C.ar      1 <0>         0.0964
     12 N1          0.4799   -4.1773    1.4570 N.pl3     1 <0>        -0.5939
     13 C11         0.0496   -2.9094    1.7390 C.2       1 <0>         0.0584
     14 N2         -1.3723   -0.5112    0.0124 N.am      1 <0>        -0.7030
     15 C12        -2.0508   -0.6427   -1.1446 C.2       1 <0>         0.6479
     16 O1         -1.5226   -0.3408   -2.1964 O.2       1 <0>        -0.5615
     17 O2         -3.3139   -1.1087   -1.1351 O.3       1 <0>        -0.3680
     18 C13        -3.9731   -1.2224   -2.3979 C.3       1 <0>         0.0607
     19 C14        -5.3882   -1.7649   -2.1876 C.3       1 <0>         0.0375
     20 S1         -6.2249   -1.9091   -3.7906 S.3       1 <0>        -0.9103
     21 S2         -5.2544   -3.4579   -4.7190 S.o2      1 <0>         2.5969
     22 O3         -5.6178   -3.4010   -6.1264 O.2       1 <0>        -0.9581
     23 O4         -3.8296   -3.2454   -4.5167 O.2       1 <0>        -0.9710
     24 O5         -5.7158   -4.6845   -4.0878 O.3       1 <0>        -0.9716
     25 H2          1.0039    1.9031    0.0027 H         1 <0>         0.0677
     26 H3         -0.5459    1.8868   -0.8726 H         1 <0>         0.0640
     27 H4         -0.5289    1.8773    0.9072 H         1 <0>         0.0578
     28 H5          1.7350   -0.0630    1.2804 H         1 <0>         0.0893
     29 H6          0.1838   -0.2350    2.1361 H         1 <0>         0.0768
     30 H7          3.2636   -1.3613   -0.4409 H         1 <0>         0.1206
     31 H8          4.7040   -3.0945   -1.3872 H         1 <0>         0.1209
     32 H9          4.1971   -5.4721   -1.0228 H         1 <0>         0.1234
     33 H10         2.2394   -6.1423    0.2969 H         1 <0>         0.1184
     34 H11        -0.8225   -2.6673    2.3283 H         1 <0>         0.1673
     35 H12         0.0470   -4.9921    1.7562 H         1 <0>         0.4161
     36 H13        -1.7940   -0.7522    0.8520 H         1 <0>         0.4007
     37 H14        -4.0265   -0.2411   -2.8694 H         1 <0>         0.0794
     38 H15        -3.4143   -1.9038   -3.0394 H         1 <0>         0.1129
     39 H16        -5.3347   -2.7461   -1.7160 H         1 <0>         0.0933
     40 H17        -5.9469   -1.0834   -1.5461 H         1 <0>         0.1092
@<TRIPOS>BOND
     1    1    2 1
     2    1   25 1
     3    1   26 1
     4    1   27 1
     5    2    3 1
     6    2    4 1
     7    2   14 1
     8    4   28 1
     9    4   29 1
    10    4    5 1
    11    5    6 1
    12    5   13 2
    13    6    7 ar
    14    6   11 ar
    15    7    8 ar
    16    7   30 1
    17    8    9 ar
    18    8   31 1
    19    9   10 ar
    20    9   32 1
    21   10   11 ar
    22   10   33 1
    23   11   12 1
    24   12   35 1
    25   12   13 1
    26   13   34 1
    27   14   15 am
    28   14   36 1
    29   15   16 2
    30   15   17 1
    31   17   18 1
    32   18   19 1
    33   18   37 1
    34   18   38 1
    35   19   20 1
    36   19   39 1
    37   19   40 1
    38   20   21 1
    39   21   22 2
    40   21   23 2
    41   21   24 1
@<TRIPOS>MOLECULE
ZINC58276165
   46    48     0     0     0
SMALL
USER_CHARGES

@<TRIPOS>ATOM
      1 C1         -0.0184    1.5028    0.0103 C.3       1 <0>        -0.0879
      2 C2          0.0021   -0.0041    0.0020 C.ar      1 <0>        -0.2136
      3 C3          0.0057   -0.6868   -1.2043 C.ar      1 <0>        -0.0410
      4 C4          0.0238   -2.0661   -1.2263 C.ar      1 <0>        -0.2570
      5 C5          0.0387   -2.7812   -0.0349 C.ar      1 <0>         0.3316
      6 C6          0.0356   -2.0928    1.1881 C.ar      1 <0>        -0.2229
      7 C7          0.0228   -0.6955    1.1932 C.ar      1 <0>        -0.0373
      8 C8          0.0513   -2.8391    2.4594 C.2       1 <0>         0.5661
      9 O1          0.0669   -4.0550    2.4505 O.2       1 <0>        -0.5019
     10 N1          0.0482   -2.1738    3.6315 N.am      1 <0>        -0.7474
     11 C9          0.0638   -2.9154    4.8948 C.3       1 <0>         0.1629
     12 C10         0.0567   -1.9446    6.0474 C.ar      1 <0>        -0.0841
     13 C11         1.2530   -1.4810    6.5649 C.ar      1 <0>        -0.0961
     14 C12         1.2532   -0.5920    7.6201 C.ar      1 <0>        -0.1108
     15 C13         0.0437   -0.1607    8.1652 C.ar      1 <0>        -0.0378
     16 C14        -1.1593   -0.6319    7.6389 C.ar      1 <0>        -0.0901
     17 C15        -1.1462   -1.5163    6.5799 C.ar      1 <0>        -0.0967
     18 C16         0.0367    0.7922    9.2972 C.2       1 <0>         0.1335
     19 C17        -1.0674    1.2914    9.9286 C.2       1 <0>        -0.2564
     20 C18        -0.6314    2.1523   10.9359 C.2       1 <0>         0.0492
     21 N2          0.6772    2.1804   10.9235 N.2       1 <0>        -0.2900
     22 N3          1.1306    1.3300    9.9069 N.pl3     1 <0>        -0.4747
     23 H1          2.0568    1.1565    9.6769 H         1 <0>         0.4377
     24 N4          0.0561   -4.1697   -0.0544 N.2       1 <0>        -1.0385
     25 S1          0.0592   -4.9775   -1.5000 S.o2      1 <0>         2.5146
     26 O2         -1.1828   -4.6438   -2.1045 O.2       1 <0>        -1.0308
     27 O3          1.2863   -4.6127   -2.1167 O.2       1 <0>        -1.0309
     28 C19         0.0835   -6.7351   -1.0517 C.3       1 <0>        -0.6313
     29 H2          1.0042    1.8801    0.0026 H         1 <0>         0.0494
     30 H3         -0.5455    1.8639   -0.8728 H         1 <0>         0.0509
     31 H4         -0.5286    1.8543    0.9071 H         1 <0>         0.0503
     32 H5         -0.0062   -0.1355   -2.1329 H         1 <0>         0.1036
     33 H6          0.0261   -2.5906   -2.1704 H         1 <0>         0.1069
     34 H7          0.0243   -0.1583    2.1301 H         1 <0>         0.1035
     35 H8          0.0357   -1.2039    3.6386 H         1 <0>         0.3918
     36 H9         -0.8178   -3.5539    4.9522 H         1 <0>         0.0719
     37 H10         0.9620   -3.5310    4.9438 H         1 <0>         0.0710
     38 H11         2.1887   -1.8159    6.1422 H         1 <0>         0.1309
     39 H12         2.1878   -0.2310    8.0234 H         1 <0>         0.1184
     40 H13        -2.0989   -0.3020    8.0568 H         1 <0>         0.1313
     41 H14        -2.0769   -1.8782    6.1685 H         1 <0>         0.1331
     42 H15        -2.0951    1.0604    9.6901 H         1 <0>         0.1513
     43 H16        -1.2672    2.7040   11.6124 H         1 <0>         0.1854
     44 H17        -0.8007   -6.9714   -0.4597 H         1 <0>         0.1163
     45 H18         0.0867   -7.3411   -1.9578 H         1 <0>         0.0997
     46 H19         0.9791   -6.9489   -0.4685 H         1 <0>         0.1162
@<TRIPOS>BOND
     1    1    2 1
     2    1   29 1
     3    1   30 1
     4    1   31 1
     5    2    7 ar
     6    2    3 ar
     7    3    4 ar
     8    3   32 1
     9    4    5 ar
    10    4   33 1
    11    5    6 ar
    12    5   24 1
    13    6    7 ar
    14    6    8 1
    15    7   34 1
    16    8    9 2
    17    8   10 am
    18   10   11 1
    19   10   35 1
    20   11   12 1
    21   11   36 1
    22   11   37 1
    23   12   17 ar
    24   12   13 ar
    25   13   14 ar
    26   13   38 1
    27   14   15 ar
    28   14   39 1
    29   15   16 ar
    30   15   18 1
    31   16   17 ar
    32   16   40 1
    33   17   41 1
    34   18   22 1
    35   18   19 2
    36   19   20 1
    37   19   42 1
    38   20   21 2
    39   20   43 1
    40   21   22 1
    41   22   23 1
    42   24   25 1
    43   25   26 2
    44   25   27 2
    45   25   28 1
    46   28   44 1
    47   28   45 1
    48   28   46 1
@<TRIPOS>MOLECULE
ZINC64872908
   51    53     0     0     0
SMALL
USER_CHARGES

@<TRIPOS>ATOM
      1 C1         -0.0184    1.5028    0.0103 C.3       1 <0>        -0.1149
      2 C2          0.0021   -0.0041    0.0020 C.ar      1 <0>        -0.0491
      3 C3          0.0057   -0.6883   -1.1997 C.ar      1 <0>        -0.1648
      4 C4          0.0244   -2.0706   -1.2107 C.ar      1 <0>        -0.0767
      5 C5          0.0391   -2.7719   -0.0203 C.ar      1 <0>        -0.2170
      6 C6          0.0355   -2.0879    1.1864 C.ar      1 <0>         0.1394
      7 C7          0.0229   -0.7004    1.1947 C.ar      1 <0>        -0.1565
      8 O1          0.0500   -2.7755    2.3585 O.3       1 <0>        -0.3114
      9 C8          0.0686   -4.2018    2.2738 C.3       1 <0>         0.0618
     10 C9          0.0829   -4.7963    3.6835 C.3       1 <0>        -0.1029
     11 C10         0.1027   -6.3235    3.5928 C.3       1 <0>        -0.1336
     12 C11         0.1168   -6.9091    4.9813 C.2       1 <0>         0.5088
     13 O2          0.1115   -6.1770    5.9482 O.2       1 <0>        -0.5450
     14 N1          0.1354   -8.2463    5.1486 N.am      1 <0>        -0.6909
     15 C12         0.1491   -8.8155    6.4984 C.3       1 <0>         0.0863
     16 H1          0.7330   -8.1733    7.1577 H         1 <0>         0.0818
     17 C13         0.7771  -10.2101    6.4575 C.3       1 <0>        -0.0414
     18 C14         2.2257  -10.0971    6.0577 C.2       1 <0>        -0.1430
     19 C15         2.7236  -10.2197    4.8171 C.2       1 <0>         0.0367
     20 N2          4.0818  -10.0554    4.8411 N.pl3     1 <0>        -0.5986
     21 H2          4.6623  -10.1002    4.0653 H         1 <0>         0.4111
     22 C16         4.5018   -9.8170    6.1305 C.ar      1 <0>         0.0961
     23 C17         3.3569   -9.8263    6.9483 C.ar      1 <0>        -0.1002
     24 C18         3.4794   -9.6037    8.3209 C.ar      1 <0>        -0.0601
     25 C19         4.7125   -9.3739    8.8635 C.ar      1 <0>        -0.1536
     26 C20         5.8445   -9.3596    8.0606 C.ar      1 <0>        -0.1004
     27 C21         5.7474   -9.5862    6.7048 C.ar      1 <0>        -0.1393
     28 C22        -1.2628   -8.9154    7.0158 C.2       1 <0>         0.4916
     29 O3         -2.1864   -9.0856    6.2383 O.co2     1 <0>        -0.6926
     30 O4         -1.4815   -8.8261    8.2119 O.co2     1 <0>        -0.6929
     31 H3          1.0042    1.8801    0.0026 H         1 <0>         0.0722
     32 H4         -0.5455    1.8639   -0.8728 H         1 <0>         0.0677
     33 H5         -0.5286    1.8543    0.9071 H         1 <0>         0.0684
     34 H6         -0.0065   -0.1419   -2.1312 H         1 <0>         0.1210
     35 H7          0.0272   -2.6027   -2.1505 H         1 <0>         0.1232
     36 H8          0.0530   -3.8518   -0.0294 H         1 <0>         0.1278
     37 H9          0.0248   -0.1655    2.1329 H         1 <0>         0.1301
     38 H10        -0.8194   -4.5459    1.7434 H         1 <0>         0.0637
     39 H11         0.9604   -4.5222    1.7353 H         1 <0>         0.0612
     40 H12         0.9708   -4.4523    4.2139 H         1 <0>         0.0804
     41 H13        -0.8090   -4.4759    4.2220 H         1 <0>         0.0838
     42 H14        -0.7852   -6.6676    3.0624 H         1 <0>         0.0935
     43 H15         0.9946   -6.6439    3.0543 H         1 <0>         0.0870
     44 H16         0.1396   -8.8318    4.3752 H         1 <0>         0.3884
     45 H17         0.7071  -10.6692    7.4436 H         1 <0>         0.0840
     46 H18         0.2468  -10.8262    5.7313 H         1 <0>         0.0725
     47 H19         2.1388  -10.4188    3.9313 H         1 <0>         0.1658
     48 H20         2.6029   -9.6127    8.9518 H         1 <0>         0.1260
     49 H21         4.8068   -9.2017    9.9255 H         1 <0>         0.1200
     50 H22         6.8120   -9.1759    8.5039 H         1 <0>         0.1203
     51 H23         6.6340   -9.5718    6.0883 H         1 <0>         0.1142
@<TRIPOS>BOND
     1    1    2 1
     2    1   31 1
     3    1   32 1
     4    1   33 1
     5    2    7 ar
     6    2    3 ar
     7    3    4 ar
     8    3   34 1
     9    4    5 ar
    10    4   35 1
    11    5    6 ar
    12    5   36 1
    13    6    7 ar
    14    6    8 1
    15    7   37 1
    16    8    9 1
    17    9   10 1
    18    9   38 1
    19    9   39 1
    20   10   11 1
    21   10   40 1
    22   10   41 1
    23   11   12 1
    24   11   42 1
    25   11   43 1
    26   12   13 2
    27   12   14 am
    28   14   15 1
    29   14   44 1
    30   15   16 1
    31   15   17 1
    32   15   28 1
    33   17   18 1
    34   17   45 1
    35   17   46 1
    36   18   23 1
    37   18   19 2
    38   19   20 1
    39   19   47 1
    40   20   21 1
    41   20   22 1
    42   22   27 ar
    43   22   23 ar
    44   23   24 ar
    45   24   25 ar
    46   24   48 1
    47   25   26 ar
    48   25   49 1
    49   26   27 ar
    50   26   50 1
    51   27   51 1
    52   28   29 2
    53   28   30 1
@<TRIPOS>MOLECULE
ZINC67287621
   47    49     0     0     0
SMALL
USER_CHARGES

@<TRIPOS>ATOM
      1 C1         -1.8589    0.3022    1.3980 C.1       1 <0>        -0.2037
      2 C2         -1.3345    1.2960    1.0582 C.1       1 <0>        -0.1663
      3 C3         -0.6770    2.5422    0.6321 C.3       1 <0>         0.1533
      4 N1          0.7562    2.2939    0.4261 N.3       1 <0>        -0.5118
      5 C4          1.4446    2.0906    1.7072 C.3       1 <0>         0.0569
      6 C5          2.8993    1.6922    1.4485 C.3       1 <0>        -0.1185
      7 C6          3.5911    2.7975    0.6458 C.3       1 <0>        -0.1192
      8 C7          2.8265    3.0228   -0.6615 C.3       1 <0>        -0.1086
      9 C8          1.3738    3.3827   -0.3417 C.3       1 <0>         0.0845
     10 H1          1.3479    4.3009    0.2450 H         1 <0>         0.0677
     11 C9          0.6124    3.5861   -1.6262 C.2       1 <0>         0.5075
     12 O1          0.0337    2.6535   -2.1423 O.2       1 <0>        -0.5213
     13 N2          0.5746    4.8043   -2.2014 N.am      1 <0>        -0.5160
     14 N3         -0.1333    4.9934   -3.3956 N.am      1 <0>        -0.5299
     15 C10        -0.1712    6.2116   -3.9708 C.2       1 <0>         0.6169
     16 O2          0.4090    7.1466   -3.4534 O.2       1 <0>        -0.5229
     17 C11        -0.9163    6.4107   -5.2279 C.2       1 <0>        -0.1193
     18 C12        -1.0415    7.6250   -5.9498 C.2       1 <0>         0.2440
     19 C13        -1.8095    7.3273   -7.0290 C.2       1 <0>        -0.2609
     20 N4         -2.1202    6.0048   -6.9456 N.pl3     1 <0>        -0.2177
     21 N5         -1.5874    5.4909   -5.8957 N.2       1 <0>        -0.2724
     22 C14        -2.9030    5.3045   -7.8726 C.ar      1 <0>         0.1755
     23 C15        -3.4217    5.9602   -8.9813 C.ar      1 <0>        -0.1391
     24 C16        -4.1928    5.2670   -9.8937 C.ar      1 <0>        -0.0962
     25 C17        -4.4485    3.9213   -9.7039 C.ar      1 <0>        -0.1474
     26 C18        -3.9338    3.2656   -8.6005 C.ar      1 <0>        -0.0985
     27 C19        -3.1573    3.9519   -7.6876 C.ar      1 <0>        -0.1319
     28 O3         -0.5049    8.8335   -5.6286 O.3       1 <0>        -0.7023
     29 H2         -2.3280   -0.5867    1.7020 H         1 <0>         0.2166
     30 H3         -1.1234    2.8882   -0.3001 H         1 <0>         0.1060
     31 H4         -0.8069    3.3031    1.4017 H         1 <0>         0.0588
     32 H5          1.4183    3.0149    2.2843 H         1 <0>         0.0380
     33 H6          0.9452    1.2993    2.2662 H         1 <0>         0.0809
     34 H7          3.4141    1.5566    2.3996 H         1 <0>         0.0696
     35 H8          2.9265    0.7606    0.8833 H         1 <0>         0.0740
     36 H9          3.5985    3.7196    1.2270 H         1 <0>         0.0639
     37 H10         4.6152    2.4986    0.4220 H         1 <0>         0.0716
     38 H11         3.2893    3.8379   -1.2179 H         1 <0>         0.0780
     39 H12         2.8525    2.1122   -1.2599 H         1 <0>         0.0828
     40 H13         1.0374    5.5502   -1.7887 H         1 <0>         0.4284
     41 H14        -0.5961    4.2475   -3.8084 H         1 <0>         0.4324
     42 H15        -2.1165    8.0110   -7.8067 H         1 <0>         0.1551
     43 H16        -3.2226    7.0113   -9.1299 H         1 <0>         0.1327
     44 H17        -4.5967    5.7765  -10.7560 H         1 <0>         0.1262
     45 H18        -5.0517    3.3814  -10.4187 H         1 <0>         0.1209
     46 H19        -4.1359    2.2147   -8.4547 H         1 <0>         0.1254
     47 H20        -2.7516    3.4382   -6.8286 H         1 <0>         0.1360
@<TRIPOS>BOND
     1    1    2 3
     2    1   29 1
     3    2    3 1
     4    3    4 1
     5    3   30 1
     6    3   31 1
     7    4    9 1
     8    4    5 1
     9    5    6 1
    10    5   32 1
    11    5   33 1
    12    6    7 1
    13    6   34 1
    14    6   35 1
    15    7    8 1
    16    7   36 1
    17    7   37 1
    18    8    9 1
    19    8   38 1
    20    8   39 1
    21    9   10 1
    22    9   11 1
    23   11   12 2
    24   11   13 am
    25   13   14 1
    26   13   40 1
    27   14   15 am
    28   14   41 1
    29   15   16 2
    30   15   17 1
    31   17   21 2
    32   17   18 1
    33   18   19 2
    34   18   28 1
    35   19   20 1
    36   19   42 1
    37   20   21 1
    38   20   22 1
    39   22   27 ar
    40   22   23 ar
    41   23   24 ar
    42   23   43 1
    43   24   25 ar
    44   24   44 1
    45   25   26 ar
    46   25   45 1
    47   26   27 ar
    48   26   46 1
    49   27   47 1
@<TRIPOS>MOLECULE
ZINC24458831
   43    44     0     0     0
SMALL
USER_CHARGES
N,3-diethyl-N-(2-methylprop-2-enyl)-4-oxo-2-sulfanyl-quinazoline-7-carboxamide
@<TRIPOS>ATOM
      1 C1         -8.3379    3.0228   -0.4159 C.3       1 <0>        -0.1572
      2 C2         -7.5966    2.7416   -1.7245 C.3       1 <0>         0.0925
      3 N1         -6.2421    2.2696   -1.4268 N.pl3     1 <0>        -0.5357
      4 C3         -5.2317    3.1615   -1.3081 C.2       1 <0>         0.5479
      5 O1         -5.4251    4.3555   -1.4439 O.3       1 <0>        -0.5395
      6 C4         -3.8903    2.6356   -1.0089 C.ar      1 <0>        -0.2254
      7 C5         -2.7878    3.4779   -0.8690 C.ar      1 <0>        -0.0304
      8 C6         -1.5610    2.9508   -0.5837 C.ar      1 <0>        -0.1851
      9 C7         -1.3945    1.5673   -0.4429 C.ar      1 <0>        -0.0884
     10 C8         -2.4782    0.7097   -0.5794 C.ar      1 <0>        -0.0734
     11 C9         -3.7405    1.2379   -0.8647 C.ar      1 <0>         0.2010
     12 N2         -4.8252    0.4399   -1.0052 N.2       1 <0>        -0.5615
     13 C10        -6.0094    0.9330   -1.2718 C.2       1 <0>         0.5346
     14 S1         -7.3651   -0.1803   -1.4372 S.2       1 <0>        -0.7630
     15 C11        -0.0543    1.0155   -0.1402 C.2       1 <0>         0.5631
     16 O2          0.0486   -0.0286    0.4730 O.2       1 <0>        -0.5271
     17 N3          1.0514    1.6683   -0.5497 N.am      1 <0>        -0.6016
     18 C12         0.9271    2.8910   -1.3471 C.3       1 <0>         0.0683
     19 C13         1.3133    4.0992   -0.4916 C.3       1 <0>        -0.1787
     20 C14         2.3776    1.1552   -0.1975 C.3       1 <0>         0.1473
     21 C15         2.8488    0.2043   -1.2675 C.2       1 <0>        -0.1346
     22 C16         3.6176    0.6370   -2.2359 C.2       1 <0>        -0.1909
     23 C17         2.4357   -1.2442   -1.2234 C.3       1 <0>        -0.1179
     24 H1         -9.3550    3.3772   -0.6395 H         1 <0>         0.0662
     25 H2         -7.7977    3.7938    0.1531 H         1 <0>         0.0471
     26 H3         -8.3939    2.0995    0.1794 H         1 <0>         0.0696
     27 H4         -8.1368    1.9706   -2.2935 H         1 <0>         0.1163
     28 H5         -7.5406    3.6648   -2.3199 H         1 <0>         0.0790
     29 H6         -2.9054    4.5457   -0.9799 H         1 <0>         0.1313
     30 H7         -0.7102    3.6063   -0.4705 H         1 <0>         0.1492
     31 H8         -2.3468   -0.3562   -0.4657 H         1 <0>         0.1408
     32 H9          1.5956    2.8300   -2.2185 H         1 <0>         0.0717
     33 H10        -0.1124    3.0014   -1.6895 H         1 <0>         0.1199
     34 H11         1.2200    5.0173   -1.0903 H         1 <0>         0.0723
     35 H12         2.3528    3.9888   -0.1492 H         1 <0>         0.0602
     36 H13         0.6448    4.1602    0.3798 H         1 <0>         0.0672
     37 H14         3.0849    1.9935   -0.1146 H         1 <0>         0.0826
     38 H15         2.3222    0.6257    0.7651 H         1 <0>         0.0903
     39 H16         3.9616   -0.0570   -3.0169 H         1 <0>         0.0995
     40 H17         3.9192    1.6944   -2.2680 H         1 <0>         0.0972
     41 H18         2.8738   -1.7767   -2.0805 H         1 <0>         0.0559
     42 H19         1.3389   -1.3142   -1.2699 H         1 <0>         0.0732
     43 H20         2.7929   -1.6990   -0.2877 H         1 <0>         0.0662
@<TRIPOS>BOND
     1    1    2 1
     2    1   24 1
     3    1   25 1
     4    1   26 1
     5    2    3 1
     6    2   27 1
     7    2   28 1
     8    3   13 1
     9    3    4 1
    10    4    5 1
    11    4    6 2
    12    6   11 ar
    13    6    7 ar
    14    7    8 ar
    15    7   29 1
    16    8    9 ar
    17    8   30 1
    18    9   10 ar
    19    9   15 1
    20   10   11 ar
    21   10   31 1
    22   11   12 2
    23   12   13 1
    24   13   14 2
    25   15   16 2
    26   15   17 am
    27   17   18 1
    28   17   20 1
    29   18   19 1
    30   18   32 1
    31   18   33 1
    32   19   34 1
    33   19   35 1
    34   19   36 1
    35   20   21 1
    36   20   37 1
    37   20   38 1
    38   21   22 2
    39   21   23 1
    40   22   39 1
    41   22   40 1
    42   23   41 1
    43   23   42 1
    44   23   43 1
@<TRIPOS>MOLECULE
ZINC42537337
   31    31     0     0     0
SMALL
USER_CHARGES

@<TRIPOS>ATOM
      1 C1         -0.0184    1.5028    0.0103 C.3       1 <0>        -0.1153
      2 C2          0.0021   -0.0041    0.0020 C.ar      1 <0>        -0.0217
      3 C3          0.0057   -0.6874   -1.1983 C.ar      1 <0>        -0.1782
      4 C4          0.0245   -2.0761   -1.2052 C.ar      1 <0>         0.2989
      5 C5          0.0397   -2.7738   -0.0040 C.ar      1 <0>        -0.2576
      6 C6          0.0360   -2.0852    1.1929 C.ar      1 <0>        -0.0339
      7 C7          0.0229   -0.7014    1.1966 C.ar      1 <0>        -0.1876
      8 Br1         0.0256    0.2379    2.8377 Br        1 <0>        -0.0984
      9 N1          0.0278   -2.7701   -2.4178 N.2       1 <0>        -1.0893
     10 S1          0.0503   -4.4260   -2.4241 S.o2      1 <0>         2.5524
     11 O1          1.2928   -4.7740   -1.8290 O.2       1 <0>        -1.0149
     12 O2         -1.1762   -4.8076   -1.8164 O.2       1 <0>        -0.9944
     13 C8          0.0476   -4.8856   -4.1790 C.3       1 <0>        -0.5762
     14 H1          0.9720   -4.5449   -4.6452 H         1 <0>         0.1542
     15 C9         -1.1466   -4.2305   -4.8759 C.3       1 <0>        -0.1205
     16 C10        -0.0566   -6.3836   -4.3057 C.2       1 <0>         0.4875
     17 O3         -0.5610   -7.0313   -3.4192 O.2       1 <0>        -0.4933
     18 O4          0.4111   -6.9984   -5.4035 O.3       1 <0>        -0.3465
     19 C11         0.2794   -8.4203   -5.4566 C.3       1 <0>         0.0284
     20 H2          1.0042    1.8801    0.0026 H         1 <0>         0.0666
     21 H3         -0.5455    1.8639   -0.8728 H         1 <0>         0.0630
     22 H4         -0.5286    1.8543    0.9071 H         1 <0>         0.0679
     23 H5         -0.0064   -0.1424   -2.1307 H         1 <0>         0.1207
     24 H6          0.0540   -3.8537   -0.0062 H         1 <0>         0.1072
     25 H7          0.0474   -2.6271    2.1271 H         1 <0>         0.1118
     26 H8         -1.0713   -3.1470   -4.7842 H         1 <0>         0.1026
     27 H9         -1.1482   -4.5067   -5.9303 H         1 <0>         0.0681
     28 H10        -2.0711   -4.5712   -4.4096 H         1 <0>         0.0712
     29 H11         0.8168   -8.8664   -4.6197 H         1 <0>         0.0625
     30 H12        -0.7750   -8.6900   -5.3966 H         1 <0>         0.0619
     31 H13         0.6961   -8.7890   -6.3939 H         1 <0>         0.1027
@<TRIPOS>BOND
     1    1    2 1
     2    1   20 1
     3    1   21 1
     4    1   22 1
     5    2    7 ar
     6    2    3 ar
     7    3    4 ar
     8    3   23 1
     9    4    5 ar
    10    4    9 1
    11    5    6 ar
    12    5   24 1
    13    6    7 ar
    14    6   25 1
    15    7    8 1
    16    9   10 1
    17   10   11 2
    18   10   12 2
    19   10   13 1
    20   13   14 1
    21   13   15 1
    22   13   16 1
    23   15   26 1
    24   15   27 1
    25   15   28 1
    26   16   17 2
    27   16   18 1
    28   18   19 1
    29   19   29 1
    30   19   30 1
    31   19   31 1
@<TRIPOS>MOLECULE
ZINC59415396
   36    38     0     0     0
SMALL
USER_CHARGES

@<TRIPOS>ATOM
      1 C1         -0.0173    1.4248    0.0099 C.3       1 <0>         0.0346
      2 O1          0.0021   -0.0041    0.0020 O.3       1 <0>        -0.3529
      3 C2          0.6213   -0.6139    1.0339 C.2       1 <0>         0.5757
      4 O2          1.1308    0.0509    1.9163 O.2       1 <0>        -0.5250
      5 C3          0.6800   -2.0740    1.0918 C.2       1 <0>        -0.3139
      6 C4          1.7891   -2.8173    0.4921 C.2       1 <0>        -0.0481
      7 C5          1.6942   -4.1505    0.6304 C.2       1 <0>        -0.2672
      8 S1          0.1845   -4.4031    1.5286 S.3       1 <0>         0.0403
      9 C6         -0.3087   -2.8118    1.7215 C.2       1 <0>         0.2498
     10 N1         -1.4411   -2.3446    2.3598 N.2       1 <0>        -1.0236
     11 S2         -2.5010   -3.4120    3.0523 S.o2      1 <0>         2.6050
     12 O3         -3.0748   -4.1615    1.9902 O.2       1 <0>        -1.0084
     13 O4         -1.8114   -4.0261    4.1324 O.2       1 <0>        -1.0083
     14 C7         -3.8059   -2.4640    3.7619 C.ar      1 <0>        -0.6192
     15 C8         -3.7080   -2.0223    5.0681 C.ar      1 <0>        -0.0222
     16 C9         -4.7316   -1.2786    5.6248 C.ar      1 <0>        -0.1464
     17 C10        -5.8530   -0.9763    4.8752 C.ar      1 <0>        -0.0798
     18 C11        -5.9505   -1.4172    3.5687 C.ar      1 <0>        -0.1467
     19 C12        -4.9249   -2.1573    3.0106 C.ar      1 <0>        -0.0224
     20 C13         2.8556   -4.8649   -0.0064 C.3       1 <0>        -0.0168
     21 C14         3.4907   -3.8164   -0.9465 C.3       1 <0>        -0.1136
     22 C15         3.0716   -2.4944   -0.2719 C.3       1 <0>        -0.0593
     23 H1          1.0053    1.8021    0.0021 H         1 <0>         0.0497
     24 H2         -0.5445    1.7859   -0.8732 H         1 <0>         0.0895
     25 H3         -0.5275    1.7763    0.9067 H         1 <0>         0.0532
     26 H4         -2.8318   -2.2585    5.6538 H         1 <0>         0.1375
     27 H5         -4.6554   -0.9341    6.6456 H         1 <0>         0.1278
     28 H6         -6.6531   -0.3958    5.3103 H         1 <0>         0.1249
     29 H7         -6.8268   -1.1813    2.9831 H         1 <0>         0.1278
     30 H8         -4.9995   -2.4986    1.9887 H         1 <0>         0.1377
     31 H9          3.5720   -5.1778    0.7531 H         1 <0>         0.0689
     32 H10         2.5059   -5.7249   -0.5775 H         1 <0>         0.0656
     33 H11         4.5759   -3.9171   -0.9667 H         1 <0>         0.0739
     34 H12         3.0748   -3.8905   -1.9513 H         1 <0>         0.0718
     35 H13         2.8799   -1.7304   -1.0253 H         1 <0>         0.0659
     36 H14         3.8472   -2.1599    0.4170 H         1 <0>         0.0742
@<TRIPOS>BOND
     1    1    2 1
     2    1   23 1
     3    1   24 1
     4    1   25 1
     5    2    3 1
     6    3    4 2
     7    3    5 1
     8    5    9 2
     9    5    6 1
    10    6   22 1
    11    6    7 2
    12    7    8 1
    13    7   20 1
    14    8    9 1
    15    9   10 1
    16   10   11 1
    17   11   12 2
    18   11   13 2
    19   11   14 1
    20   14   19 ar
    21   14   15 ar
    22   15   16 ar
    23   15   26 1
    24   16   17 ar
    25   16   27 1
    26   17   18 ar
    27   17   28 1
    28   18   19 ar
    29   18   29 1
    30   19   30 1
    31   20   21 1
    32   20   31 1
    33   20   32 1
    34   21   22 1
    35   21   33 1
    36   21   34 1
    37   22   35 1
    38   22   36 1
@<TRIPOS>MOLECULE
ZINC62926002
   35    36     0     0     0
SMALL
USER_CHARGES

@<TRIPOS>ATOM
      1 C1         -0.0187    1.5258    0.0104 C.3       1 <0>        -0.1440
      2 C2          0.0021   -0.0041    0.0020 C.3       1 <0>        -0.1398
      3 C3          0.7421   -0.5109    1.2415 C.3       1 <0>        -0.0780
      4 C4          0.7628   -2.0407    1.2331 C.3       1 <0>        -0.1338
      5 C5         -0.6699   -2.6101    1.4075 C.3       1 <0>        -0.1088
      6 C6         -0.8416   -2.5546    2.9460 C.3       1 <0>         0.1235
      7 N1          0.4862   -2.8986    3.4866 N.pl3     1 <0>        -0.9997
      8 C7          1.5038   -2.5836    2.4733 C.3       1 <0>         0.1415
      9 S1          0.7824   -3.5337    4.9870 S.o2      1 <0>         2.7371
     10 O1          2.1233   -3.1953    5.3137 O.2       1 <0>        -0.9443
     11 O2         -0.3177   -3.1662    5.8080 O.2       1 <0>        -0.9505
     12 C8          0.7297   -5.2878    4.8299 C.2       1 <0>        -0.7488
     13 C9          1.7370   -6.1500    4.5502 C.2       1 <0>        -0.0001
     14 C10         1.4608   -7.5028    4.4752 C.2       1 <0>        -0.1670
     15 C11         0.1890   -7.9262    4.6839 C.2       1 <0>        -0.0928
     16 S2         -0.6632   -6.3907    5.0055 S.3       1 <0>         0.2112
     17 Cl1        -0.4442   -9.5423    4.6531 Cl        1 <0>         0.0264
     18 C12         1.3951   -2.5565   -0.0339 C.2       1 <0>         0.5102
     19 O3          1.8139   -1.7730   -0.8689 O.co2     1 <0>        -0.6802
     20 O4          1.4877   -3.7572   -0.2240 O.co2     1 <0>        -0.6925
     21 H1          1.0039    1.9031    0.0027 H         1 <0>         0.0486
     22 H2         -0.5459    1.8868   -0.8726 H         1 <0>         0.0435
     23 H3         -0.5289    1.8773    0.9072 H         1 <0>         0.0393
     24 H4         -1.0205   -0.3814    0.0098 H         1 <0>         0.0438
     25 H5          0.5123   -0.3556   -0.8948 H         1 <0>         0.1092
     26 H6          1.7647   -0.1336    1.2338 H         1 <0>         0.0581
     27 H7          0.2319   -0.1594    2.1383 H         1 <0>         0.0404
     28 H8         -1.4049   -1.9779    0.9093 H         1 <0>         0.0780
     29 H9         -0.7294   -3.6362    1.0445 H         1 <0>         0.0803
     30 H10        -1.1305   -1.5514    3.2595 H         1 <0>         0.0712
     31 H11        -1.5841   -3.2832    3.2715 H         1 <0>         0.0680
     32 H12         2.0561   -3.4855    2.2097 H         1 <0>         0.0729
     33 H13         2.1875   -1.8266    2.8574 H         1 <0>         0.0664
     34 H14         2.7408   -5.7859    4.3880 H         1 <0>         0.1577
     35 H15         2.2452   -8.2113    4.2536 H         1 <0>         0.1529
@<TRIPOS>BOND
     1    1    2 1
     2    1   21 1
     3    1   22 1
     4    1   23 1
     5    2    3 1
     6    2   24 1
     7    2   25 1
     8    3    4 1
     9    3   26 1
    10    3   27 1
    11    4    8 1
    12    4    5 1
    13    4   18 1
    14    5    6 1
    15    5   28 1
    16    5   29 1
    17    6    7 1
    18    6   30 1
    19    6   31 1
    20    7    8 1
    21    7    9 1
    22    8   32 1
    23    8   33 1
    24    9   10 2
    25    9   11 2
    26    9   12 1
    27   12   16 1
    28   12   13 2
    29   13   14 1
    30   13   34 1
    31   14   15 2
    32   14   35 1
    33   15   16 1
    34   15   17 1
    35   18   19 2
    36   18   20 1
@<TRIPOS>MOLECULE
ZINC65591007
   48    50     0     0     0
SMALL
USER_CHARGES

@<TRIPOS>ATOM
      1 C1          0.0639    1.7165   -0.0095 C.3       1 <0>        -0.1386
      2 C2         -0.0077    0.1889   -0.0573 C.3       1 <0>        -0.0310
      3 C3          0.6774   -0.3927    1.1809 C.3       1 <0>        -0.1388
      4 C4         -1.4724   -0.2524   -0.0843 C.3       1 <0>        -0.1451
      5 C5          0.6896   -0.3081   -1.2974 C.ar      1 <0>        -0.0663
      6 C6         -0.0160   -1.0377   -2.2383 C.ar      1 <0>        -0.1233
      7 C7          0.6151   -1.4963   -3.3753 C.ar      1 <0>        -0.0944
      8 C8          1.9715   -1.2221   -3.5765 C.ar      1 <0>        -0.0678
      9 C9          2.6774   -0.4840   -2.6214 C.ar      1 <0>        -0.1015
     10 C10         2.0309   -0.0279   -1.4920 C.ar      1 <0>        -0.1173
     11 C11         2.6529   -1.7085   -4.7874 C.2       1 <0>        -0.0363
     12 C12         3.9606   -1.4422   -4.9779 C.2       1 <0>        -0.1926
     13 C13         4.6384   -1.9260   -6.1823 C.2       1 <0>         0.5368
     14 O1          4.0481   -2.6479   -6.9643 O.2       1 <0>        -0.5054
     15 N1          5.9159   -1.5718   -6.4249 N.am      1 <0>        -0.5608
     16 C14         6.5585   -1.9634   -7.6819 C.3       1 <0>         0.0528
     17 H1          7.5967   -1.6319   -7.7025 H         1 <0>         0.1059
     18 C15         5.7812   -1.4015   -8.8915 C.3       1 <0>        -0.1801
     19 C16         5.3457   -2.6487   -9.6303 C.2       1 <0>         0.4861
     20 O2          4.6305   -2.6649  -10.7653 O.3       1 <0>        -0.6550
     21 N2          5.7708   -3.7017   -8.9980 N.2       1 <0>        -0.6861
     22 C17         6.4697   -3.4618   -7.8856 C.2       1 <0>         0.5180
     23 O3          6.9536   -4.3032   -7.1563 O.2       1 <0>        -0.5452
     24 C18         6.6620   -0.7951   -5.4317 C.3       1 <0>         0.0705
     25 C19         8.0766   -0.3461   -5.8034 C.3       1 <0>        -0.1860
     26 C20         7.8731   -1.4628   -4.7774 C.3       1 <0>        -0.1916
     27 H2          1.1074    2.0309    0.0097 H         1 <0>         0.0572
     28 H3         -0.4242    2.1309   -0.8917 H         1 <0>         0.0568
     29 H4         -0.4404    2.0760    0.8874 H         1 <0>         0.0576
     30 H5          0.1731   -0.0332    2.0778 H         1 <0>         0.0576
     31 H6          0.6264   -1.4810    1.1469 H         1 <0>         0.0570
     32 H7          1.7209   -0.0784    1.2001 H         1 <0>         0.0573
     33 H8         -1.9605    0.1620   -0.9664 H         1 <0>         0.0593
     34 H9         -1.5235   -1.3406   -0.1183 H         1 <0>         0.0594
     35 H10        -1.9768    0.1071    0.8126 H         1 <0>         0.0573
     36 H11        -1.0635   -1.2486   -2.0815 H         1 <0>         0.1282
     37 H12         0.0633   -2.0661   -4.1083 H         1 <0>         0.1278
     38 H13         3.7252   -0.2686   -2.7696 H         1 <0>         0.1257
     39 H14         2.5736    0.5461   -0.7556 H         1 <0>         0.1219
     40 H15         2.1051   -2.2787   -5.5231 H         1 <0>         0.1365
     41 H16         4.5083   -0.8721   -4.2422 H         1 <0>         0.1275
     42 H17         4.9153   -0.8282   -8.5602 H         1 <0>         0.0848
     43 H18         6.4319   -0.7908   -9.5174 H         1 <0>         0.0834
     44 H19         6.0651   -0.1217   -4.8166 H         1 <0>         0.1278
     45 H20         8.4522   -0.6286   -6.7869 H         1 <0>         0.1022
     46 H21         8.4107    0.6230   -5.4329 H         1 <0>         0.1027
     47 H22         8.0734   -1.2283   -3.7319 H         1 <0>         0.0991
     48 H23         8.1149   -2.4799   -5.0859 H         1 <0>         0.1062
@<TRIPOS>BOND
     1    1    2 1
     2    1   27 1
     3    1   28 1
     4    1   29 1
     5    2    3 1
     6    2    4 1
     7    2    5 1
     8    3   30 1
     9    3   31 1
    10    3   32 1
    11    4   33 1
    12    4   34 1
    13    4   35 1
    14    5   10 ar
    15    5    6 ar
    16    6    7 ar
    17    6   36 1
    18    7    8 ar
    19    7   37 1
    20    8    9 ar
    21    8   11 1
    22    9   10 ar
    23    9   38 1
    24   10   39 1
    25   11   12 2
    26   11   40 1
    27   12   13 1
    28   12   41 1
    29   13   14 2
    30   13   15 am
    31   15   16 1
    32   15   24 1
    33   16   17 1
    34   16   22 1
    35   16   18 1
    36   18   19 1
    37   18   42 1
    38   18   43 1
    39   19   20 1
    40   19   21 2
    41   21   22 1
    42   22   23 2
    43   24   26 1
    44   24   25 1
    45   24   44 1
    46   25   26 1
    47   25   45 1
    48   25   46 1
    49   26   47 1
    50   26   48 1
@<TRIPOS>MOLECULE
ZINC20320149
   34    35     0     0     0
SMALL
USER_CHARGES
1-[2-(azepan-1-yl)-2-oxo-ethyl]pyrazole-3-carboxylic acid
@<TRIPOS>ATOM
      1 C1         -0.0126    1.0758    0.0080 C.2       1 <0>        -0.1969
      2 C2         -1.1010    1.8803    0.0167 C.2       1 <0>        -0.0492
      3 N1         -0.6561    3.1554    0.0245 N.pl3     1 <0>        -0.3030
      4 N2          0.6283    3.1781    0.0126 N.2       1 <0>        -0.2342
      5 C3          1.1024    1.9478    0.0020 C.2       1 <0>         0.0097
      6 C4          2.5248    1.5547   -0.0132 C.2       1 <0>         0.5315
      7 O1          2.8300    0.3788   -0.0221 O.co2     1 <0>        -0.6310
      8 O2          3.4849    2.4999   -0.0174 O.co2     1 <0>        -0.7433
      9 C5         -1.5149    4.3422    0.0381 C.3       1 <0>         0.1105
     10 C6         -1.1388    5.2211    1.2030 C.2       1 <0>         0.4942
     11 O3         -0.2417    4.8889    1.9485 O.2       1 <0>        -0.4905
     12 N3         -1.7993    6.3764    1.4164 N.am      1 <0>        -0.6078
     13 C7         -2.8598    6.7467    0.5062 C.3       1 <0>         0.1071
     14 C8         -2.2828    7.5652   -0.6677 C.3       1 <0>        -0.1435
     15 C9         -1.8790    8.9026   -0.2074 C.3       1 <0>        -0.1169
     16 C10        -0.7657    8.8987    0.8358 C.3       1 <0>        -0.1250
     17 C11        -1.3661    8.7106    2.2072 C.3       1 <0>        -0.1308
     18 C12        -1.4062    7.2142    2.5663 C.3       1 <0>         0.1108
     19 H1          0.0021   -0.0041    0.0020 H         1 <0>         0.1517
     20 H2         -2.1329    1.5618    0.0191 H         1 <0>         0.1674
     21 H3         -1.3832    4.9009   -0.9003 H         1 <0>         0.1142
     22 H4         -2.5660    4.0331    0.1363 H         1 <0>         0.1229
     23 H5         -3.3399    5.8382    0.1135 H         1 <0>         0.0785
     24 H6         -3.6056    7.3541    1.0399 H         1 <0>         0.0817
     25 H7         -1.4044    7.0467   -1.0794 H         1 <0>         0.0693
     26 H8         -3.0471    7.6708   -1.4517 H         1 <0>         0.0773
     27 H9         -1.5157    9.4906   -1.0631 H         1 <0>         0.0593
     28 H10        -2.7428    9.4106    0.2462 H         1 <0>         0.0593
     29 H11        -0.0676    8.0754    0.6239 H         1 <0>         0.0693
     30 H12        -0.2254    9.8562    0.7991 H         1 <0>         0.0629
     31 H13        -0.7559    9.2441    2.9509 H         1 <0>         0.0753
     32 H14        -2.3903    9.1119    2.2173 H         1 <0>         0.0644
     33 H15        -2.1296    7.0778    3.3836 H         1 <0>         0.0622
     34 H16        -0.4042    6.9180    2.9103 H         1 <0>         0.0928
@<TRIPOS>BOND
     1    1    5 1
     2    1    2 2
     3    1   19 1
     4    2    3 1
     5    2   20 1
     6    3    4 1
     7    3    9 1
     8    4    5 2
     9    5    6 1
    10    6    7 2
    11    6    8 1
    12    9   10 1
    13    9   21 1
    14    9   22 1
    15   10   11 2
    16   10   12 am
    17   12   18 1
    18   12   13 1
    19   13   14 1
    20   13   23 1
    21   13   24 1
    22   14   15 1
    23   14   25 1
    24   14   26 1
    25   15   16 1
    26   15   27 1
    27   15   28 1
    28   16   17 1
    29   16   29 1
    30   16   30 1
    31   17   18 1
    32   17   31 1
    33   17   32 1
    34   18   33 1
    35   18   34 1
@<TRIPOS>MOLECULE
ZINC39994506
   25    26     0     0     0
SMALL
USER_CHARGES

@<TRIPOS>ATOM
      1 C1         -0.0184    1.5028    0.0103 C.3       1 <0>        -0.0321
      2 C2          0.0021   -0.0041    0.0020 C.2       1 <0>        -0.0298
      3 N1          0.0097   -0.8451   -1.0142 N.2       1 <0>        -0.2527
      4 N2          0.0273   -2.0958   -0.8520 N.2       1 <0>        -0.3504
      5 C3          0.0392   -2.6426    0.3638 C.2       1 <0>         0.3691
      6 S1          0.0308   -1.1605    1.3685 S.3       1 <0>        -0.1432
      7 N3          0.0577   -3.9491    0.7340 N.2       1 <0>        -0.6031
      8 C4          0.0669   -4.8930   -0.1832 C.2       1 <0>         0.4645
      9 O1          0.0579   -4.5617   -1.4947 O.3       1 <0>        -0.6275
     10 C5          0.0868   -6.3044    0.2168 C.2       1 <0>        -0.0167
     11 C6          0.0964   -7.2980   -0.7487 C.2       1 <0>         0.0212
     12 C7          0.1156   -8.6524   -0.3648 C.2       1 <0>        -0.0086
     13 C8          0.1324   -9.7425   -1.2177 C.2       1 <0>        -0.1607
     14 C9          0.1479  -10.8836   -0.4049 C.2       1 <0>        -0.2202
     15 C10         0.1402  -10.4609    0.8804 C.2       1 <0>        -0.0211
     16 O2          0.1267   -9.1212    0.9014 O.3       1 <0>        -0.1596
     17 C11         0.0963   -6.6551    1.6052 C.1       1 <0>         0.2726
     18 N4          0.1039   -6.9332    2.7066 N.1       1 <0>        -0.4216
     19 H1          1.0042    1.8801    0.0026 H         1 <0>         0.0720
     20 H2         -0.5455    1.8639   -0.8728 H         1 <0>         0.0811
     21 H3         -0.5286    1.8543    0.9071 H         1 <0>         0.0714
     22 H4          0.0893   -7.0335   -1.7958 H         1 <0>         0.1826
     23 H5          0.1329   -9.7182   -2.2975 H         1 <0>         0.1589
     24 H6          0.1627  -11.9096   -0.7416 H         1 <0>         0.1518
     25 H7          0.1481  -11.1009    1.7504 H         1 <0>         0.2020
@<TRIPOS>BOND
     1    1    2 1
     2    1   19 1
     3    1   20 1
     4    1   21 1
     5    2    6 1
     6    2    3 2
     7    3    4 1
     8    4    5 2
     9    5    6 1
    10    5    7 1
    11    7    8 2
    12    8    9 1
    13    8   10 1
    14   10   11 2
    15   10   17 1
    16   11   12 1
    17   11   22 1
    18   12   16 1
    19   12   13 2
    20   13   14 1
    21   13   23 1
    22   14   15 2
    23   14   24 1
    24   15   16 1
    25   15   25 1
    26   17   18 3
@<TRIPOS>MOLECULE
ZINC44013257
   25    26     0     0     0
SMALL
USER_CHARGES

@<TRIPOS>ATOM
      1 C1         -0.0191    1.5028    0.0036 C.3       1 <0>        -0.1031
      2 C2          0.0015   -0.0041   -0.0032 C.2       1 <0>         0.1230
      3 C3         -1.1668   -0.6778   -0.0202 C.2       1 <0>        -0.2741
      4 C4         -1.1671   -2.0854   -0.0273 C.2       1 <0>         0.3600
      5 O1         -2.3283   -2.7759   -0.0447 O.3       1 <0>        -0.6100
      6 C5          0.0660   -2.7555   -0.0162 C.2       1 <0>        -0.5182
      7 C6          1.2538   -1.9835    0.0015 C.2       1 <0>         0.5222
      8 O2          2.3399   -2.5348    0.0114 O.2       1 <0>        -0.5234
      9 O3          1.1797   -0.6412    0.0023 O.3       1 <0>        -0.2925
     10 C7          0.1238   -4.2236   -0.0225 C.2       1 <0>         0.4388
     11 O4         -0.9026   -4.8744    0.0730 O.2       1 <0>        -0.4777
     12 C8          1.4122   -4.9040   -0.1432 C.2       1 <0>        -0.1370
     13 C9          1.4578   -6.2500   -0.2525 C.2       1 <0>        -0.0906
     14 C10         2.7525   -6.9336   -0.3738 C.2       1 <0>         0.0575
     15 C11         2.8703   -8.3105   -0.4948 C.2       1 <0>        -0.2755
     16 S1          4.5349   -8.5085   -0.5945 S.3       1 <0>         0.3684
     17 N1          5.0010   -6.9638   -0.4886 N.2       1 <0>        -0.2494
     18 N2          3.9128   -6.2873   -0.3830 N.2       1 <0>        -0.2269
     19 H1          1.0034    1.8801    0.0127 H         1 <0>         0.0776
     20 H2         -0.5315    1.8632   -0.8883 H         1 <0>         0.0871
     21 H3         -0.5442    1.8549    0.8916 H         1 <0>         0.0870
     22 H4         -2.1019   -0.1374   -0.0280 H         1 <0>         0.1365
     23 H5          2.3275   -4.3308   -0.1450 H         1 <0>         0.1718
     24 H6          0.5425   -6.8232   -0.2508 H         1 <0>         0.1406
     25 H7          2.0934   -9.0603   -0.5188 H         1 <0>         0.2077
@<TRIPOS>BOND
     1    1    2 1
     2    1   19 1
     3    1   20 1
     4    1   21 1
     5    2    9 1
     6    2    3 2
     7    3    4 1
     8    3   22 1
     9    4    5 1
    10    4    6 2
    11    6    7 1
    12    6   10 1
    13    7    8 2
    14    7    9 1
    15   10   11 2
    16   10   12 1
    17   12   13 2
    18   12   23 1
    19   13   14 1
    20   13   24 1
    21   14   18 1
    22   14   15 2
    23   15   16 1
    24   15   25 1
    25   16   17 1
    26   17   18 2
@<TRIPOS>MOLECULE
ZINC01829104
   25    27     0     0     0
SMALL
USER_CHARGES

@<TRIPOS>ATOM
      1 C1         -0.0162    1.3450    0.0094 C.2       1 <0>        -0.2283
      2 C2          1.3222    1.7769   -0.0010 C.2       1 <0>        -0.1524
      3 C3          2.0972    0.6531   -0.0145 C.2       1 <0>        -0.0491
      4 O1          1.2787   -0.4184   -0.0124 O.3       1 <0>        -0.1412
      5 C4          0.0021   -0.0041    0.0020 C.2       1 <0>        -0.0024
      6 C5          3.5621    0.6175   -0.0294 C.2       1 <0>         0.2155
      7 N1          4.1850   -0.5248   -0.0414 N.2       1 <0>        -0.2230
      8 N2          3.4553   -1.7207   -0.0400 N.pl3     1 <0>        -0.3539
      9 C6          3.0271   -2.4354    1.0592 C.2       1 <0>         0.1882
     10 N3          2.3811   -3.4887    0.6050 N.2       1 <0>        -0.2493
     11 N4          2.3766   -3.4809   -0.6799 N.2       1 <0>        -0.3277
     12 C7          3.0126   -2.4219   -1.1296 C.2       1 <0>         0.3982
     13 S1          3.2538   -1.9877   -2.8202 S.3       1 <0>        -0.7884
     14 C8          3.2504   -2.0874    2.4703 C.2       1 <0>         0.0896
     15 C9          2.6006   -2.6268    3.5404 C.2       1 <0>        -0.1765
     16 C10         3.1274   -2.0059    4.6893 C.2       1 <0>        -0.2082
     17 C11         4.0615   -1.1284    4.2720 C.2       1 <0>        -0.0470
     18 O2          4.1373   -1.1837    2.9318 O.3       1 <0>        -0.1704
     19 H1         -0.8935    1.9747    0.0252 H         1 <0>         0.1520
     20 H2          1.6696    2.7995    0.0008 H         1 <0>         0.1559
     21 H3         -0.8672   -0.6449    0.0076 H         1 <0>         0.2018
     22 H4          4.1246    1.5394   -0.0304 H         1 <0>         0.2090
     23 H5          1.8306   -3.3836    3.5124 H         1 <0>         0.1551
     24 H6          2.8373   -2.1967    5.7120 H         1 <0>         0.1500
     25 H7          4.6540   -0.4892    4.9099 H         1 <0>         0.2025
@<TRIPOS>BOND
     1    1    5 2
     2    1    2 1
     3    1   19 1
     4    2    3 2
     5    2   20 1
     6    3    4 1
     7    3    6 1
     8    4    5 1
     9    5   21 1
    10    6    7 2
    11    6   22 1
    12    7    8 1
    13    8   12 1
    14    8    9 1
    15    9   10 2
    16    9   14 1
    17   10   11 1
    18   11   12 2
    19   12   13 1
    20   14   18 1
    21   14   15 2
    22   15   16 1
    23   15   23 1
    24   16   17 2
    25   16   24 1
    26   17   18 1
    27   17   25 1
@<TRIPOS>MOLECULE
ZINC00085659
   27    29     0     0     0
SMALL
USER_CHARGES

@<TRIPOS>ATOM
      1 C1         -0.0184    1.5028    0.0103 C.3       1 <0>        -0.0987
      2 C2          0.0021   -0.0041    0.0020 C.ar      1 <0>         0.1585
      3 C3          0.0057   -0.6865   -1.2034 C.ar      1 <0>        -0.1716
      4 C4          0.0243   -2.0635   -1.2220 C.ar      1 <0>         0.0220
      5 C5          0.0401   -2.7656    0.0044 C.ar      1 <0>        -0.1251
      6 C6          0.0353   -1.9822    1.1723 C.ar      1 <0>         0.1105
      7 N1          0.0219   -0.6664    1.1428 N.ar      1 <0>        -0.4548
      8 S1          0.0575   -3.1664    2.4966 S.3       1 <0>         0.1493
      9 C7          0.0727   -4.6576    1.5432 C.ar      1 <0>        -0.2760
     10 C8          0.0605   -4.2257    0.2073 C.ar      1 <0>         0.1243
     11 N2          0.0690   -5.2047   -0.7210 N.ar      1 <0>        -0.3527
     12 N3          0.0871   -6.4407   -0.3892 N.ar      1 <0>         0.0261
     13 N4          0.0986   -6.8688    0.8206 N.ar      1 <0>        -0.3605
     14 C9          0.0926   -6.0119    1.8398 C.ar      1 <0>         0.4354
     15 O1          0.1042   -6.4486    3.1232 O.3       1 <0>        -0.6517
     16 C10         0.0274   -2.8105   -2.5308 C.3       1 <0>         0.1039
     17 O2          0.0088   -1.8767   -3.6123 O.3       1 <0>        -0.3945
     18 C11         0.0101   -2.4849   -4.9054 C.3       1 <0>         0.0341
     19 H1          1.0042    1.8801    0.0026 H         1 <0>         0.0808
     20 H2         -0.5455    1.8639   -0.8728 H         1 <0>         0.0785
     21 H3         -0.5286    1.8543    0.9071 H         1 <0>         0.0787
     22 H4         -0.0064   -0.1364   -2.1327 H         1 <0>         0.1491
     23 H5          0.9255   -3.4247   -2.5965 H         1 <0>         0.0814
     24 H6         -0.8543   -3.4489   -2.5868 H         1 <0>         0.0815
     25 H7         -0.8720   -3.1165   -5.0107 H         1 <0>         0.0435
     26 H8         -0.0046   -1.7097   -5.6715 H         1 <0>         0.0845
     27 H9          0.9078   -3.0923   -5.0204 H         1 <0>         0.0435
@<TRIPOS>BOND
     1    1    2 1
     2    1   19 1
     3    1   20 1
     4    1   21 1
     5    2    7 ar
     6    2    3 ar
     7    3    4 ar
     8    3   22 1
     9    4    5 ar
    10    4   16 1
    11    5    6 ar
    12    5   10 1
    13    6    7 ar
    14    6    8 1
    15    8    9 1
    16    9   14 ar
    17    9   10 ar
    18   10   11 ar
    19   11   12 ar
    20   12   13 ar
    21   13   14 ar
    22   14   15 1
    23   16   17 1
    24   16   23 1
    25   16   24 1
    26   17   18 1
    27   18   25 1
    28   18   26 1
    29   18   27 1
@<TRIPOS>MOLECULE
ZINC01241826
   30    32     0     0     0
SMALL
USER_CHARGES
4-[(2-bromophenyl)methyleneamino]-5-(3-pyridyl)-1,2,4-triazole-3-thiol
@<TRIPOS>ATOM
      1 C1          2.7647    7.7193   -0.5349 C.ar      1 <0>        -0.1136
      2 C2          3.1024    7.9005    0.7950 C.ar      1 <0>        -0.0953
      3 C3          2.4684    7.1686    1.7827 C.ar      1 <0>        -0.1005
      4 C4          1.4935    6.2503    1.4474 C.ar      1 <0>        -0.0537
      5 C5          1.1479    6.0620    0.1064 C.ar      1 <0>        -0.0353
      6 C6          1.7969    6.8015   -0.8855 C.ar      1 <0>        -0.0754
      7 C7          0.1077    5.0833   -0.2603 C.2       1 <0>         0.1437
      8 N1         -0.4893    4.3943    0.6631 N.2       1 <0>        -0.1872
      9 N2         -1.4776    3.4644    0.3147 N.pl3     1 <0>        -0.3667
     10 C8         -1.2995    2.1301    0.0198 C.2       1 <0>         0.1480
     11 N3         -2.4847    1.6354   -0.2561 N.2       1 <0>        -0.2631
     12 N4         -3.3797    2.5510   -0.1484 N.2       1 <0>        -0.3309
     13 C9         -2.8223    3.6911    0.1952 C.2       1 <0>         0.3849
     14 S1         -3.6512    5.2244    0.4534 S.3       1 <0>        -0.7839
     15 C10        -0.0169    1.3960    0.0097 C.ar      1 <0>        -0.0269
     16 C11         0.0021   -0.0041    0.0020 C.ar      1 <0>        -0.0497
     17 C12         1.2290   -0.6431   -0.0131 C.ar      1 <0>        -0.1678
     18 C13         2.3870    0.1141   -0.0201 C.ar      1 <0>         0.0849
     19 N5          2.3389    1.4324   -0.0130 N.ar      1 <0>        -0.4765
     20 C14         1.1959    2.0866    0.0018 C.ar      1 <0>         0.0993
     21 Br1         0.6285    5.2497    2.7989 Br        1 <0>         0.0070
     22 H1          3.2638    8.2946   -1.3005 H         1 <0>         0.1341
     23 H2          3.8646    8.6173    1.0630 H         1 <0>         0.1333
     24 H3          2.7368    7.3156    2.8185 H         1 <0>         0.1362
     25 H4          1.5383    6.6577   -1.9242 H         1 <0>         0.1383
     26 H5         -0.1622    4.9373   -1.3166 H         1 <0>         0.1304
     27 H6         -0.9174   -0.5705    0.0081 H         1 <0>         0.1452
     28 H7          1.2824   -1.7217   -0.0198 H         1 <0>         0.1376
     29 H8          3.3461   -0.3822   -0.0319 H         1 <0>         0.1547
     30 H9          1.1972    3.1666    0.0076 H         1 <0>         0.1486
@<TRIPOS>BOND
     1    1    6 ar
     2    1    2 ar
     3    1   22 1
     4    2    3 ar
     5    2   23 1
     6    3    4 ar
     7    3   24 1
     8    4    5 ar
     9    4   21 1
    10    5    6 ar
    11    5    7 1
    12    6   25 1
    13    7    8 2
    14    7   26 1
    15    8    9 1
    16    9   13 1
    17    9   10 1
    18   10   11 2
    19   10   15 1
    20   11   12 1
    21   12   13 2
    22   13   14 1
    23   15   20 ar
    24   15   16 ar
    25   16   17 ar
    26   16   27 1
    27   17   18 ar
    28   17   28 1
    29   18   19 ar
    30   18   29 1
    31   19   20 ar
    32   20   30 1
@<TRIPOS>MOLECULE
ZINC38615856
   38    39     0     0     0
SMALL
USER_CHARGES

@<TRIPOS>ATOM
      1 C1         -2.4750   -0.0449    1.1080 C.3       1 <0>        -0.1287
      2 C2         -1.2734   -0.7587    0.5444 C.2       1 <0>         0.1407
      3 C3         -1.3836   -1.5252   -0.6099 C.2       1 <0>        -0.3106
      4 C4         -0.1920   -2.2025   -1.1243 C.2       1 <0>         0.5695
      5 O1         -0.2633   -2.8795   -2.1344 O.2       1 <0>        -0.5665
      6 N1          0.9829   -2.0754   -0.4794 N.am      1 <0>        -0.5286
      7 C5          1.0881   -1.3284    0.6445 C.2       1 <0>         0.5233
      8 C6         -0.0188   -0.6561    1.1745 C.2       1 <0>        -0.4100
      9 C7          0.1266    0.1493    2.3867 C.2       1 <0>         0.4848
     10 O2          0.3794   -0.3878    3.4454 O.2       1 <0>        -0.4576
     11 C8         -0.0375    1.6459    2.3213 C.3       1 <0>        -0.1837
     12 H1         -0.4314    2.0350    1.3824 H         1 <0>         0.1271
     13 C9          0.9887    2.5023    3.0659 C.3       1 <0>        -0.1012
     14 H2          1.2696    3.4550    2.6171 H         1 <0>         0.1247
     15 C10        -0.4364    2.3698    3.6089 C.3       1 <0>        -0.0821
     16 C11        -1.3572    3.5849    3.4799 C.3       1 <0>        -0.1154
     17 C12        -0.6381    1.5188    4.8643 C.3       1 <0>        -0.1175
     18 C13         2.0865    1.7847    3.8081 C.2       1 <0>        -0.0642
     19 C14         3.0861    2.4650    4.3207 C.2       1 <0>        -0.0554
     20 Cl1         3.1429    4.1909    4.1431 Cl        1 <0>        -0.0539
     21 Cl2         4.3507    1.6383    5.1757 Cl        1 <0>        -0.0447
     22 O3          2.2804   -1.2260    1.2605 O.3       1 <0>        -0.6413
     23 C15         2.1686   -2.7580   -1.0032 C.3       1 <0>         0.0778
     24 C16        -2.6408   -1.6507   -1.2838 C.1       1 <0>         0.3151
     25 N2         -3.6382   -1.7502   -1.8185 N.1       1 <0>        -0.4952
     26 H3         -2.5000    0.9776    0.7312 H         1 <0>         0.0831
     27 H4         -3.3828   -0.5663    0.8045 H         1 <0>         0.0689
     28 H5         -2.4113   -0.0297    2.1961 H         1 <0>         0.0722
     29 H6         -2.2964    3.2815    3.0173 H         1 <0>         0.0656
     30 H7         -1.5559    3.9967    4.4694 H         1 <0>         0.0638
     31 H8         -0.8753    4.3419    2.8613 H         1 <0>         0.0594
     32 H9          0.2888    0.9972    5.1025 H         1 <0>         0.0770
     33 H10        -0.9176    2.1624    5.6984 H         1 <0>         0.0539
     34 H11        -1.4294    0.7906    4.6863 H         1 <0>         0.0620
     35 H12         2.0512    0.7109    3.9186 H         1 <0>         0.1663
     36 H13         1.9020   -3.3087   -1.9053 H         1 <0>         0.0874
     37 H14         2.9365   -2.0218   -1.2405 H         1 <0>         0.0672
     38 H15         2.5494   -3.4515   -0.2534 H         1 <0>         0.0671
@<TRIPOS>BOND
     1    1    2 1
     2    1   26 1
     3    1   27 1
     4    1   28 1
     5    2    8 1
     6    2    3 2
     7    3    4 1
     8    3   24 1
     9    4    5 2
    10    4    6 am
    11    6    7 1
    12    6   23 1
    13    7    8 2
    14    7   22 1
    15    8    9 1
    16    9   10 2
    17    9   11 1
    18   11   12 1
    19   11   15 1
    20   11   13 1
    21   13   14 1
    22   13   15 1
    23   13   18 1
    24   15   16 1
    25   15   17 1
    26   16   29 1
    27   16   30 1
    28   16   31 1
    29   17   32 1
    30   17   33 1
    31   17   34 1
    32   18   19 2
    33   18   35 1
    34   19   20 1
    35   19   21 1
    36   23   36 1
    37   23   37 1
    38   23   38 1
    39   24   25 3
@<TRIPOS>MOLECULE
ZINC49454349
   41    43     0     0     0
SMALL
USER_CHARGES

@<TRIPOS>ATOM
      1 C1         -0.0184    1.5028    0.0103 C.3       1 <0>        -0.1210
      2 C2          0.0021   -0.0041    0.0020 C.ar      1 <0>        -0.0519
      3 C3          0.0057   -0.6887   -1.1989 C.ar      1 <0>        -0.1373
      4 C4          0.0245   -2.0709   -1.2065 C.ar      1 <0>        -0.0478
      5 C5          0.0400   -2.7685   -0.0132 C.ar      1 <0>        -0.4718
      6 C6          0.0373   -2.0839    1.1877 C.ar      1 <0>        -0.0383
      7 C7          0.0229   -0.7016    1.1953 C.ar      1 <0>        -0.1405
      8 S1          0.0628   -4.5303   -0.0229 S.o       1 <0>         1.3333
      9 O1         -0.5136   -4.8746   -1.2753 O.2       1 <0>        -0.8278
     10 C8          1.8284   -4.9463   -0.0349 C.3       1 <0>        -0.3704
     11 C9          1.9914   -6.4445   -0.0440 C.2       1 <0>         0.0063
     12 C10         2.0778   -7.2397    1.0401 C.2       1 <0>        -0.0543
     13 O2          2.2147   -8.5045    0.5980 O.3       1 <0>        -0.1905
     14 C11         2.2105   -8.4699   -0.7461 C.2       1 <0>         0.2637
     15 N1          2.0703   -7.2230   -1.1315 N.2       1 <0>        -0.4727
     16 C12         2.3369   -9.6396   -1.6392 C.ar      1 <0>        -0.0481
     17 C13         2.3239   -9.4644   -3.0257 C.ar      1 <0>        -0.0803
     18 C14         2.4411  -10.5496   -3.8552 C.ar      1 <0>        -0.0914
     19 C15         2.5743  -11.8324   -3.3136 C.ar      1 <0>        -0.1041
     20 C16         2.5877  -12.0070   -1.9257 C.ar      1 <0>        -0.0910
     21 C17         2.4752  -10.9204   -1.0974 C.ar      1 <0>        -0.1002
     22 C18         2.6999  -12.9996   -4.2048 C.2       1 <0>         0.5173
     23 O3          2.6878  -12.8467   -5.4183 O.co2     1 <0>        -0.6815
     24 O4          2.8164  -14.1213   -3.7309 O.co2     1 <0>        -0.6826
     25 C19         2.0307   -6.7965    2.4797 C.3       1 <0>        -0.0704
     26 H1          1.0042    1.8801    0.0026 H         1 <0>         0.0747
     27 H2         -0.5455    1.8639   -0.8728 H         1 <0>         0.0687
     28 H3         -0.5286    1.8543    0.9071 H         1 <0>         0.0701
     29 H4         -0.0064   -0.1436   -2.1312 H         1 <0>         0.1241
     30 H5          0.0266   -2.6057   -2.1448 H         1 <0>         0.1275
     31 H6          0.0491   -2.6289    2.1200 H         1 <0>         0.1376
     32 H7          0.0245   -0.1667    2.1335 H         1 <0>         0.1284
     33 H8          2.2949   -4.5247   -0.9253 H         1 <0>         0.1049
     34 H9          2.3048   -4.5344    0.8547 H         1 <0>         0.1291
     35 H10         2.2210   -8.4739   -3.4437 H         1 <0>         0.1299
     36 H11         2.4303  -10.4141   -4.9266 H         1 <0>         0.1365
     37 H12         2.6905  -12.9971   -1.5069 H         1 <0>         0.1357
     38 H13         2.4897  -11.0546   -0.0259 H         1 <0>         0.1234
     39 H14         0.9977   -6.7999    2.8273 H         1 <0>         0.0894
     40 H15         2.6217   -7.4796    3.0897 H         1 <0>         0.0807
     41 H16         2.4388   -5.7892    2.5632 H         1 <0>         0.0922
@<TRIPOS>BOND
     1    1    2 1
     2    1   26 1
     3    1   27 1
     4    1   28 1
     5    2    7 ar
     6    2    3 ar
     7    3    4 ar
     8    3   29 1
     9    4    5 ar
    10    4   30 1
    11    5    6 ar
    12    5    8 1
    13    6    7 ar
    14    6   31 1
    15    7   32 1
    16    8    9 2
    17    8   10 1
    18   10   11 1
    19   10   33 1
    20   10   34 1
    21   11   15 1
    22   11   12 2
    23   12   13 1
    24   12   25 1
    25   13   14 1
    26   14   15 2
    27   14   16 1
    28   16   21 ar
    29   16   17 ar
    30   17   18 ar
    31   17   35 1
    32   18   19 ar
    33   18   36 1
    34   19   20 ar
    35   19   22 1
    36   20   21 ar
    37   20   37 1
    38   21   38 1
    39   22   23 2
    40   22   24 1
    41   25   39 1
    42   25   40 1
    43   25   41 1
@<TRIPOS>MOLECULE
ZINC62554254
   42    44     0     0     0
SMALL
USER_CHARGES

@<TRIPOS>ATOM
      1 C1          2.5161   -0.1880   -0.4673 C.3       1 <0>        -0.1502
      2 C2          1.2552   -0.9751   -0.1050 C.3       1 <0>         0.1394
      3 H1          1.4980   -2.0333   -0.0085 H         1 <0>         0.0537
      4 C3          0.1966   -0.7859   -1.1975 C.3       1 <0>         0.0509
      5 O1         -1.0355   -1.3679   -0.7651 O.3       1 <0>        -0.3879
      6 C4         -1.5911   -0.7606    0.4038 C.3       1 <0>         0.0509
      7 C5         -0.6242   -0.9486    1.5784 C.3       1 <0>         0.1392
      8 H2         -0.5710   -2.0041    1.8448 H         1 <0>         0.0537
      9 N1          0.7065   -0.4747    1.1655 N.pl3     1 <0>        -0.6608
     10 C6          1.4287    0.4262    1.9572 C.ar      1 <0>         0.0688
     11 C7          1.2663    1.7935    1.7773 C.ar      1 <0>        -0.0810
     12 C8          1.9789    2.6821    2.5579 C.ar      1 <0>        -0.1762
     13 C9          2.8576    2.2084    3.5232 C.ar      1 <0>         0.2768
     14 C10         3.0197    0.8411    3.7034 C.ar      1 <0>        -0.2576
     15 C11         2.3031   -0.0475    2.9263 C.ar      1 <0>        -0.0682
     16 N2          3.5804    3.1093    4.3143 N.2       1 <0>        -1.0879
     17 S1          4.6283    2.5443    5.4655 S.o2      1 <0>         2.6292
     18 O2          3.8377    1.8899    6.4482 O.2       1 <0>        -1.0225
     19 O3          5.6786    1.8861    4.7706 O.2       1 <0>        -1.0227
     20 C12         5.3466    3.9488    6.2504 C.2       1 <0>        -0.6654
     21 C13         4.9193    4.6275    7.3431 C.2       1 <0>        -0.0470
     22 C14         5.6516    5.7124    7.7872 C.2       1 <0>        -0.1800
     23 C15         6.7755    6.0657    7.1167 C.2       1 <0>        -0.1702
     24 S2          6.8302    4.8425    5.8175 S.3       1 <0>         0.1386
     25 C16        -1.1105   -0.1375    2.7811 C.3       1 <0>        -0.1502
     26 H3          3.2677   -0.3281    0.3096 H         1 <0>         0.0674
     27 H4          2.9070   -0.5463   -1.4197 H         1 <0>         0.0562
     28 H5          2.2721    0.8711   -0.5501 H         1 <0>         0.0629
     29 H6          0.0512    0.2783   -1.3832 H         1 <0>         0.0506
     30 H7          0.5280   -1.2742   -2.1140 H         1 <0>         0.0908
     31 H8         -1.7430    0.3037    0.2240 H         1 <0>         0.0505
     32 H9         -2.5459   -1.2307    0.6395 H         1 <0>         0.0907
     33 H10         0.5829    2.1619    1.0265 H         1 <0>         0.0996
     34 H11         1.8531    3.7455    2.4175 H         1 <0>         0.1108
     35 H12         3.7031    0.4726    4.4542 H         1 <0>         0.0952
     36 H13         2.4261   -1.1109    3.0693 H         1 <0>         0.0989
     37 H14         4.0198    4.3253    7.8590 H         1 <0>         0.1427
     38 H15         5.3330    6.2706    8.6551 H         1 <0>         0.1361
     39 H16         7.4619    6.8746    7.3186 H         1 <0>         0.1881
     40 H17        -2.1102   -0.4686    3.0623 H         1 <0>         0.0562
     41 H18        -0.4294   -0.2861    3.6190 H         1 <0>         0.0670
     42 H19        -1.1385    0.9201    2.5188 H         1 <0>         0.0633
@<TRIPOS>BOND
     1    1    2 1
     2    1   26 1
     3    1   27 1
     4    1   28 1
     5    2    3 1
     6    2    9 1
     7    2    4 1
     8    4    5 1
     9    4   29 1
    10    4   30 1
    11    5    6 1
    12    6    7 1
    13    6   31 1
    14    6   32 1
    15    7    8 1
    16    7    9 1
    17    7   25 1
    18    9   10 1
    19   10   15 ar
    20   10   11 ar
    21   11   12 ar
    22   11   33 1
    23   12   13 ar
    24   12   34 1
    25   13   14 ar
    26   13   16 1
    27   14   15 ar
    28   14   35 1
    29   15   36 1
    30   16   17 1
    31   17   18 2
    32   17   19 2
    33   17   20 1
    34   20   24 1
    35   20   21 2
    36   21   22 1
    37   21   37 1
    38   22   23 2
    39   22   38 1
    40   23   24 1
    41   23   39 1
    42   25   40 1
    43   25   41 1
    44   25   42 1
@<TRIPOS>MOLECULE
ZINC66253630
   36    37     0     0     0
SMALL
USER_CHARGES

@<TRIPOS>ATOM
      1 C1         -0.0184    1.5028    0.0103 C.3       1 <0>        -0.1104
      2 C2          0.0021   -0.0041    0.0020 C.ar      1 <0>        -0.1225
      3 C3          0.0057   -0.6888   -1.1991 C.ar      1 <0>        -0.0726
      4 C4          0.0245   -2.0707   -1.2067 C.ar      1 <0>        -0.1450
      5 C5          0.0400   -2.7685   -0.0132 C.ar      1 <0>         0.0215
      6 C6          0.0373   -2.0840    1.1875 C.ar      1 <0>        -0.6244
      7 C7          0.0229   -0.7015    1.1951 C.ar      1 <0>        -0.0236
      8 S1          0.0566   -2.9732    2.7086 S.o2      1 <0>         2.6229
      9 O1          1.0941   -3.9382    2.6018 O.2       1 <0>        -1.0010
     10 O2          0.0222   -2.0032    3.7465 O.2       1 <0>        -1.0073
     11 N1         -1.3659   -3.8160    2.8011 N.2       1 <0>        -1.0018
     12 C8         -1.6290   -4.6156    3.9064 C.2       1 <0>         0.5040
     13 N2         -2.6865   -5.3621    4.1663 N.2       1 <0>        -0.5781
     14 C9         -2.7711   -6.0674    5.2814 C.2       1 <0>         0.1615
     15 C10        -1.7517   -6.0268    6.1818 C.2       1 <0>        -0.2923
     16 S2         -0.6227   -4.9149    5.3533 S.3       1 <0>        -0.2048
     17 S3         -1.5869   -6.8479    7.7320 S.3       1 <0>         0.0015
     18 C11         0.0306   -6.3039    8.3470 C.3       1 <0>        -0.0342
     19 C12         0.2934   -6.9270    9.6544 C.1       1 <0>         0.2311
     20 N3          0.4962   -7.4080   10.6634 N.1       1 <0>        -0.4175
     21 C13        -3.9898   -6.9111    5.5538 C.3       1 <0>        -0.0816
     22 C14         0.0595   -4.2753   -0.0215 C.3       1 <0>        -0.1469
     23 H1          1.0042    1.8801    0.0026 H         1 <0>         0.0685
     24 H2         -0.5455    1.8639   -0.8728 H         1 <0>         0.0654
     25 H3         -0.5286    1.8543    0.9071 H         1 <0>         0.0682
     26 H4         -0.0064   -0.1437   -2.1314 H         1 <0>         0.1250
     27 H5          0.0266   -2.6056   -2.1449 H         1 <0>         0.1283
     28 H6          0.0246   -0.1666    2.1333 H         1 <0>         0.1394
     29 H7          0.8062   -6.6003    7.6408 H         1 <0>         0.1319
     30 H8          0.0324   -5.2192    8.4545 H         1 <0>         0.1318
     31 H9         -3.8367   -7.9118    5.1496 H         1 <0>         0.0710
     32 H10        -4.1544   -6.9750    6.6294 H         1 <0>         0.0671
     33 H11        -4.8597   -6.4568    5.0795 H         1 <0>         0.0717
     34 H12         1.0917   -4.6253   -0.0291 H         1 <0>         0.0868
     35 H13        -0.4447   -4.6501    0.8693 H         1 <0>         0.0925
     36 H14        -0.4546   -4.6404   -0.9106 H         1 <0>         0.0742
@<TRIPOS>BOND
     1    1    2 1
     2    1   23 1
     3    1   24 1
     4    1   25 1
     5    2    7 ar
     6    2    3 ar
     7    3    4 ar
     8    3   26 1
     9    4    5 ar
    10    4   27 1
    11    5    6 ar
    12    5   22 1
    13    6    7 ar
    14    6    8 1
    15    7   28 1
    16    8    9 2
    17    8   10 2
    18    8   11 1
    19   11   12 1
    20   12   16 1
    21   12   13 2
    22   13   14 1
    23   14   15 2
    24   14   21 1
    25   15   16 1
    26   15   17 1
    27   17   18 1
    28   18   19 1
    29   18   29 1
    30   18   30 1
    31   19   20 3
    32   21   31 1
    33   21   32 1
    34   21   33 1
    35   22   34 1
    36   22   35 1
    37   22   36 1
@<TRIPOS>MOLECULE
ZINC31852656
   45    47     0     0     0
SMALL
USER_CHARGES
(3R)-1-[2-(6-ethyl-2-methyl-thieno[2,3-d]pyrimidin-4-yl)sulfanylacetyl]piperidine-3-carboxylic acid
@<TRIPOS>ATOM
      1 C1          2.7916   -2.0110    1.4067 C.3       1 <0>        -0.1526
      2 C2          2.5219   -1.5617   -0.0308 C.3       1 <0>        -0.0438
      3 C3          1.7668   -0.2576   -0.0162 C.2       1 <0>        -0.1207
      4 C4          2.2624    0.9889   -0.0142 C.2       1 <0>        -0.1207
      5 C5          1.3468    2.1160    0.0006 C.ar      1 <0>        -0.1839
      6 C6         -0.0220    1.7689    0.0118 C.ar      1 <0>         0.1369
      7 S1          0.0021   -0.0041    0.0020 S.3       1 <0>         0.1017
      8 N1         -0.9648    2.6904    0.0304 N.ar      1 <0>        -0.4934
      9 C7         -0.6472    3.9708    0.0288 C.ar      1 <0>         0.3554
     10 N2          0.6121    4.3684    0.0188 N.ar      1 <0>        -0.5359
     11 C8          1.6217    3.5118    0.0050 C.ar      1 <0>         0.1976
     12 S2          3.2849    4.0934   -0.0073 S.3       1 <0>         0.0634
     13 C9          2.9933    5.8798    0.0042 C.3       1 <0>        -0.1482
     14 C10         4.3145    6.6045   -0.0042 C.2       1 <0>         0.5256
     15 O1          5.3513    5.9753   -0.0168 O.2       1 <0>        -0.5274
     16 N3          4.3441    7.9519    0.0022 N.am      1 <0>        -0.5990
     17 C11         3.0965    8.7280    0.0112 C.3       1 <0>         0.1024
     18 C12         3.1221    9.7245   -1.1464 C.3       1 <0>        -0.1356
     19 C13         4.3919   10.5740   -1.0573 C.3       1 <0>        -0.0976
     20 C14         5.6215    9.6698   -1.1689 C.3       1 <0>        -0.1411
     21 H1          5.6051    9.1307   -2.1276 H         1 <0>         0.0727
     22 C15         5.6244    8.6727   -0.0059 C.3       1 <0>         0.1346
     23 C16         6.8709   10.5106   -1.1136 C.2       1 <0>         0.4667
     24 O2          6.7870   11.7106   -0.9998 O.co2     1 <0>        -0.6362
     25 O3          8.0770    9.9265   -1.1907 O.co2     1 <0>        -0.7644
     26 C17        -1.7456    5.0025    0.0444 C.3       1 <0>        -0.0859
     27 H2          3.3428   -2.9629    1.3960 H         1 <0>         0.0673
     28 H3          1.8357   -2.1466    1.9339 H         1 <0>         0.0594
     29 H4          3.3902   -1.2465    1.9236 H         1 <0>         0.0621
     30 H5          3.4778   -1.4261   -0.5580 H         1 <0>         0.0940
     31 H6          1.9233   -2.3262   -0.5477 H         1 <0>         0.0847
     32 H7          3.3299    1.1523   -0.0239 H         1 <0>         0.1466
     33 H8          2.4143    6.1625   -0.8873 H         1 <0>         0.1261
     34 H9          2.4306    6.1537    0.9088 H         1 <0>         0.1255
     35 H10         2.2403    8.0471   -0.1044 H         1 <0>         0.0809
     36 H11         3.0083    9.2694    0.9647 H         1 <0>         0.0726
     37 H12         3.1118    9.1780   -2.1010 H         1 <0>         0.0633
     38 H13         2.2385   10.3771   -1.0881 H         1 <0>         0.0731
     39 H14         4.4009   11.3070   -1.8774 H         1 <0>         0.0671
     40 H15         4.4125   11.1026   -0.0928 H         1 <0>         0.0644
     41 H16         5.7486    9.2101    0.9458 H         1 <0>         0.0664
     42 H17         6.4485    7.9550   -0.1320 H         1 <0>         0.1020
     43 H18        -1.3029    6.0095    0.0407 H         1 <0>         0.0918
     44 H19        -2.3566    4.8739    0.9500 H         1 <0>         0.0910
     45 H20        -2.3790    4.8772   -0.8462 H         1 <0>         0.0912
@<TRIPOS>BOND
     1    1    2 1
     2    1   27 1
     3    1   28 1
     4    1   29 1
     5    2    3 1
     6    2   30 1
     7    2   31 1
     8    3    7 1
     9    3    4 2
    10    4    5 1
    11    4   32 1
    12    5   11 ar
    13    5    6 ar
    14    6    7 1
    15    6    8 ar
    16    8    9 ar
    17    9   10 ar
    18    9   26 1
    19   10   11 ar
    20   11   12 1
    21   12   13 1
    22   13   14 1
    23   13   33 1
    24   13   34 1
    25   14   15 2
    26   14   16 am
    27   16   22 1
    28   16   17 1
    29   17   18 1
    30   17   35 1
    31   17   36 1
    32   18   19 1
    33   18   37 1
    34   18   38 1
    35   19   20 1
    36   19   39 1
    37   19   40 1
    38   20   21 1
    39   20   22 1
    40   20   23 1
    41   22   41 1
    42   22   42 1
    43   23   24 2
    44   23   25 1
    45   26   43 1
    46   26   44 1
    47   26   45 1
@<TRIPOS>MOLECULE
ZINC38697693
   45    48     0     0     0
SMALL
USER_CHARGES

@<TRIPOS>ATOM
      1 C1          0.5325    1.2896    0.7126 C.ar      1 <0>        -0.1393
      2 C2          1.3959    2.1147    0.0584 C.ar      1 <0>        -0.0623
      3 C3          2.4968    1.5692   -0.6209 C.ar      1 <0>        -0.1254
      4 C4          3.4127    2.3874   -1.3088 C.ar      1 <0>        -0.0583
      5 C5          4.4603    1.7869   -1.9468 C.ar      1 <0>        -0.1828
      6 C6          4.5983    0.4010   -1.9044 C.ar      1 <0>         0.1399
      7 N1          3.7436   -0.3580   -1.2629 N.ar      1 <0>        -0.4438
      8 C7          2.6965    0.1662   -0.6178 C.ar      1 <0>         0.2028
      9 C8          1.7832   -0.6525    0.0686 C.ar      1 <0>        -0.5928
     10 C9          0.7270   -0.0899    0.7171 C.ar      1 <0>        -0.0072
     11 S1          2.0047   -2.4004    0.0895 S.o2      1 <0>         2.6112
     12 O1          3.3603   -2.6337    0.4458 O.2       1 <0>        -1.0106
     13 O2          0.9186   -2.9385    0.8312 O.2       1 <0>        -1.0362
     14 N2          1.8257   -2.9353   -1.4675 N.2       1 <0>        -1.0748
     15 C10         1.9500   -4.2981   -1.7575 C.ar      1 <0>         0.2916
     16 C11         2.2179   -5.2034   -0.7388 C.ar      1 <0>        -0.2589
     17 C12         2.3407   -6.5484   -1.0253 C.ar      1 <0>        -0.0477
     18 C13         2.1967   -6.9960   -2.3318 C.ar      1 <0>         0.0061
     19 C14         1.9293   -6.0911   -3.3504 C.ar      1 <0>        -0.0608
     20 C15         1.7999   -4.7468   -3.0633 C.ar      1 <0>        -0.1772
     21 N3          2.3218   -8.3613   -2.6224 N.am      1 <0>        -0.5425
     22 C16         3.6437   -8.8674   -2.9701 C.3       1 <0>         0.1147
     23 C17         3.6996  -10.3851   -2.7920 C.3       1 <0>        -0.1361
     24 C18         2.5074  -11.0100   -3.5265 C.3       1 <0>        -0.1219
     25 C19         1.2232  -10.5986   -2.8021 C.3       1 <0>        -0.1324
     26 C20         1.2249   -9.1170   -2.5583 C.2       1 <0>         0.5067
     27 O3          0.1711   -8.5779   -2.2931 O.2       1 <0>        -0.5421
     28 H1         -0.3116    1.7105    1.2387 H         1 <0>         0.1329
     29 H2          1.2345    3.1826    0.0617 H         1 <0>         0.1318
     30 H3          3.2903    3.4602   -1.3316 H         1 <0>         0.1361
     31 H4          5.1810    2.3856   -2.4841 H         1 <0>         0.1362
     32 H5          5.4315   -0.0601   -2.4140 H         1 <0>         0.1608
     33 H6          0.0283   -0.7232    1.2437 H         1 <0>         0.1464
     34 H7          2.3306   -4.8552    0.2773 H         1 <0>         0.0986
     35 H8          2.5490   -7.2523   -0.2332 H         1 <0>         0.0994
     36 H9          1.8181   -6.4393   -4.3666 H         1 <0>         0.1024
     37 H10         1.5868   -4.0436   -3.8548 H         1 <0>         0.1141
     38 H11         3.8633   -8.6181   -4.0083 H         1 <0>         0.0625
     39 H12         4.3889   -8.4012   -2.3256 H         1 <0>         0.0760
     40 H13         4.6296  -10.7686   -3.2118 H         1 <0>         0.0811
     41 H14         3.6455  -10.6311   -1.7315 H         1 <0>         0.0707
     42 H15         2.4801  -10.6497   -4.5549 H         1 <0>         0.0696
     43 H16         2.6006  -12.0960   -3.5200 H         1 <0>         0.0720
     44 H17         0.3612  -10.8665   -3.4131 H         1 <0>         0.0955
     45 H18         1.1639  -11.1195   -1.8464 H         1 <0>         0.0941
@<TRIPOS>BOND
     1    1   10 ar
     2    1    2 ar
     3    1   28 1
     4    2    3 ar
     5    2   29 1
     6    3    8 ar
     7    3    4 ar
     8    4    5 ar
     9    4   30 1
    10    5    6 ar
    11    5   31 1
    12    6    7 ar
    13    6   32 1
    14    7    8 ar
    15    8    9 ar
    16    9   10 ar
    17    9   11 1
    18   10   33 1
    19   11   12 2
    20   11   13 2
    21   11   14 1
    22   14   15 1
    23   15   20 ar
    24   15   16 ar
    25   16   17 ar
    26   16   34 1
    27   17   18 ar
    28   17   35 1
    29   18   19 ar
    30   18   21 1
    31   19   20 ar
    32   19   36 1
    33   20   37 1
    34   21   26 am
    35   21   22 1
    36   22   23 1
    37   22   38 1
    38   22   39 1
    39   23   24 1
    40   23   40 1
    41   23   41 1
    42   24   25 1
    43   24   42 1
    44   24   43 1
    45   25   26 1
    46   25   44 1
    47   25   45 1
    48   26   27 2
@<TRIPOS>MOLECULE
ZINC45448341
   45    47     0     0     0
SMALL
USER_CHARGES

@<TRIPOS>ATOM
      1 C1         -0.3376    1.4893    0.1308 C.3       1 <0>        -0.1104
      2 C2         -0.2474   -0.0146    0.0962 C.ar      1 <0>        -0.0957
      3 C3         -0.2280   -0.6756   -1.1192 C.ar      1 <0>        -0.1144
      4 C4         -0.1456   -2.0521   -1.1579 C.ar      1 <0>        -0.0851
      5 C5         -0.0817   -2.7781    0.0325 C.ar      1 <0>         0.0205
      6 C6         -0.1017   -2.1051    1.2552 C.ar      1 <0>        -0.1223
      7 C7         -0.1787   -0.7278    1.2797 C.ar      1 <0>        -0.1140
      8 C8          0.0063   -4.2535   -0.0014 C.2       1 <0>         0.1513
      9 N1         -0.3222   -5.0317   -1.0062 N.2       1 <0>        -0.2701
     10 N2         -0.1185   -6.2614   -0.6934 N.2       1 <0>        -0.3391
     11 C9          0.3528   -6.3436    0.5309 C.2       1 <0>         0.3899
     12 S1          0.7819   -7.8217    1.3886 S.3       1 <0>        -0.7983
     13 N3          0.4536   -5.0695    1.0120 N.pl3     1 <0>        -0.4749
     14 C10         0.9347   -4.6576    2.3331 C.3       1 <0>         0.1015
     15 C11        -0.2143   -4.6563    3.3082 C.2       1 <0>         0.5106
     16 O1         -1.3256   -4.9686    2.9363 O.2       1 <0>        -0.5039
     17 N4         -0.0069   -4.3080    4.5935 N.am      1 <0>        -0.6147
     18 C12         1.3312   -3.9194    5.0666 C.3       1 <0>         0.0752
     19 C13         1.2111   -2.5881    5.8170 C.3       1 <0>         0.0739
     20 H1          0.9476   -1.7970    5.1150 H         1 <0>         0.0635
     21 O2          0.1929   -2.7002    6.8143 O.3       1 <0>        -0.3730
     22 C14        -1.1131   -2.9545    6.2913 C.3       1 <0>         0.0567
     23 C15        -1.1131   -4.2992    5.5639 C.3       1 <0>         0.1044
     24 H2         -2.0605   -4.4328    5.0418 H         1 <0>         0.1062
     25 C16        -0.9186   -5.4288    6.5773 C.3       1 <0>        -0.1557
     26 C17         2.5470   -2.2552    6.4843 C.3       1 <0>        -0.1441
     27 H3          0.6662    1.9139    0.1169 H         1 <0>         0.0677
     28 H4         -0.8926    1.8402   -0.7393 H         1 <0>         0.0648
     29 H5         -0.8517    1.8017    1.0397 H         1 <0>         0.0631
     30 H6         -0.2779   -0.1127   -2.0395 H         1 <0>         0.1248
     31 H7         -0.1309   -2.5670   -2.1072 H         1 <0>         0.1346
     32 H8         -0.0525   -2.6609    2.1798 H         1 <0>         0.1144
     33 H9         -0.1898   -0.2056    2.2250 H         1 <0>         0.1198
     34 H10         1.7002   -5.3545    2.6745 H         1 <0>         0.1266
     35 H11         1.3583   -3.6553    2.2692 H         1 <0>         0.1103
     36 H12         1.7201   -4.6853    5.7377 H         1 <0>         0.0830
     37 H13         2.0017   -3.8018    4.2153 H         1 <0>         0.0913
     38 H14        -1.8337   -2.9814    7.1087 H         1 <0>         0.1065
     39 H15        -1.3850   -2.1647    5.5911 H         1 <0>         0.0544
     40 H16         0.0251   -5.2861    7.1037 H         1 <0>         0.0629
     41 H17        -1.7396   -5.4191    7.2942 H         1 <0>         0.0659
     42 H18        -0.9028   -6.3859    6.0560 H         1 <0>         0.0626
     43 H19         3.3231   -2.1741    5.7232 H         1 <0>         0.0751
     44 H20         2.4608   -1.3086    7.0177 H         1 <0>         0.0672
     45 H21         2.8089   -3.0459    7.1874 H         1 <0>         0.0671
@<TRIPOS>BOND
     1    1    2 1
     2    1   27 1
     3    1   28 1
     4    1   29 1
     5    2    7 ar
     6    2    3 ar
     7    3    4 ar
     8    3   30 1
     9    4    5 ar
    10    4   31 1
    11    5    6 ar
    12    5    8 1
    13    6    7 ar
    14    6   32 1
    15    7   33 1
    16    8   13 1
    17    8    9 2
    18    9   10 1
    19   10   11 2
    20   11   12 1
    21   11   13 1
    22   13   14 1
    23   14   15 1
    24   14   34 1
    25   14   35 1
    26   15   16 2
    27   15   17 am
    28   17   23 1
    29   17   18 1
    30   18   19 1
    31   18   36 1
    32   18   37 1
    33   19   20 1
    34   19   21 1
    35   19   26 1
    36   21   22 1
    37   22   23 1
    38   22   38 1
    39   22   39 1
    40   23   24 1
    41   23   25 1
    42   25   40 1
    43   25   41 1
    44   25   42 1
    45   26   43 1
    46   26   44 1
    47   26   45 1
@<TRIPOS>MOLECULE
ZINC39731726
   40    42     0     0     0
SMALL
USER_CHARGES

@<TRIPOS>ATOM
      1 C1         -0.0184    1.5028    0.0103 C.3       1 <0>        -0.1075
      2 C2          0.0021   -0.0041    0.0020 C.2       1 <0>         0.2962
      3 C3         -1.1960   -0.7041    0.0040 C.2       1 <0>        -0.3694
      4 C4         -1.1789   -2.2141   -0.0683 C.3       1 <0>         0.0666
      5 H1         -2.0836   -2.6128    0.3907 H         1 <0>         0.1038
      6 C5          0.0439   -2.7225    0.6853 C.3       1 <0>        -0.2345
      7 H2         -0.0996   -2.4870    1.7399 H         1 <0>         0.1143
      8 C6          1.2438   -1.9404    0.1953 C.2       1 <0>         0.4983
      9 N1          2.3401   -2.6268   -0.0842 N.2       1 <0>        -0.6152
     10 C7          2.3609   -3.9561   -0.0240 C.2       1 <0>         0.4424
     11 N2          1.3074   -4.7300    0.1929 N.2       1 <0>        -0.6917
     12 C8          0.1137   -4.2285    0.5529 C.2       1 <0>         0.5428
     13 O1         -0.8560   -4.9346    0.7529 O.2       1 <0>        -0.4953
     14 S1          3.9163   -4.7520   -0.2518 S.3       1 <0>        -0.0224
     15 C9          3.5316   -6.5184   -0.1012 C.3       1 <0>        -0.1361
     16 N3          1.1620   -0.6402   -0.0125 N.2       1 <0>        -0.6029
     17 C10        -1.1077   -2.6509   -1.5088 C.ar      1 <0>        -0.0748
     18 C11        -0.0335   -2.2734   -2.2928 C.ar      1 <0>        -0.0937
     19 C12         0.0331   -2.6738   -3.6138 C.ar      1 <0>        -0.1521
     20 C13        -0.9767   -3.4533   -4.1521 C.ar      1 <0>         0.0845
     21 C14        -2.0522   -3.8308   -3.3660 C.ar      1 <0>        -0.1568
     22 C15        -2.1140   -3.4336   -2.0438 C.ar      1 <0>        -0.0679
     23 F1         -0.9129   -3.8449   -5.4436 F         1 <0>        -0.1473
     24 C16        -2.3973   -0.0252    0.0721 C.2       1 <0>         0.4806
     25 O2         -3.5576   -0.7085    0.0737 O.3       1 <0>        -0.6244
     26 O3         -2.4079    1.3198    0.1368 O.3       1 <0>        -0.3284
     27 C17        -3.6856    1.9559    0.2051 C.3       1 <0>         0.0330
     28 H3          1.0042    1.8801    0.0026 H         1 <0>         0.0732
     29 H4         -0.5455    1.8639   -0.8728 H         1 <0>         0.0848
     30 H5         -0.5286    1.8543    0.9071 H         1 <0>         0.0896
     31 H6          3.1098   -6.7156    0.8843 H         1 <0>         0.0863
     32 H7          2.8100   -6.7997   -0.8683 H         1 <0>         0.0885
     33 H8          4.4438   -7.1011   -0.2293 H         1 <0>         0.1007
     34 H9          0.7539   -1.6651   -1.8728 H         1 <0>         0.1418
     35 H10         0.8723   -2.3785   -4.2262 H         1 <0>         0.1300
     36 H11        -2.8406   -4.4385   -3.7849 H         1 <0>         0.1304
     37 H12        -2.9505   -3.7316   -1.4291 H         1 <0>         0.1317
     38 H13        -4.2137    1.6157    1.0958 H         1 <0>         0.0550
     39 H14        -3.5514    3.0366    0.2528 H         1 <0>         0.0907
     40 H15        -4.2664    1.7008   -0.6813 H         1 <0>         0.0551
@<TRIPOS>BOND
     1    1    2 1
     2    1   28 1
     3    1   29 1
     4    1   30 1
     5    2   16 2
     6    2    3 1
     7    3    4 1
     8    3   24 2
     9    4    5 1
    10    4    6 1
    11    4   17 1
    12    6    7 1
    13    6   12 1
    14    6    8 1
    15    8    9 2
    16    8   16 1
    17    9   10 1
    18   10   11 2
    19   10   14 1
    20   11   12 1
    21   12   13 2
    22   14   15 1
    23   15   31 1
    24   15   32 1
    25   15   33 1
    26   17   22 ar
    27   17   18 ar
    28   18   19 ar
    29   18   34 1
    30   19   20 ar
    31   19   35 1
    32   20   21 ar
    33   20   23 1
    34   21   22 ar
    35   21   36 1
    36   22   37 1
    37   24   25 1
    38   24   26 1
    39   26   27 1
    40   27   38 1
    41   27   39 1
    42   27   40 1
@<TRIPOS>MOLECULE
ZINC66722984
   41    43     0     0     0
SMALL
USER_CHARGES

@<TRIPOS>ATOM
      1 C1          0.0120    1.3748    0.2855 C.ar      1 <0>        -0.1046
      2 C2          1.1727    2.0878    0.0624 C.ar      1 <0>        -0.1016
      3 C3          2.3669    1.4134   -0.1919 C.ar      1 <0>        -0.0200
      4 C4          2.3827    0.0194   -0.2195 C.ar      1 <0>        -0.1044
      5 C5          1.2130   -0.6868    0.0056 C.ar      1 <0>         0.1079
      6 C6          0.0288   -0.0071    0.2579 C.ar      1 <0>        -0.2022
      7 O1          1.2240   -2.0455   -0.0209 O.3       1 <0>        -0.3090
      8 C7         -0.0371   -2.7070    0.0986 C.3       1 <0>         0.0799
      9 C8         -0.3884   -2.9100    1.5869 C.3       1 <0>        -0.1491
     10 C9         -1.0804   -4.2951    1.6284 C.3       1 <0>        -0.1232
     11 C10        -0.2646   -5.1157    0.5987 C.3       1 <0>        -0.1229
     12 C11         0.0416   -4.1094   -0.5297 C.3       1 <0>        -0.1227
     13 C12         3.6131    2.1750   -0.4321 C.2       1 <0>         0.5220
     14 O2          4.7697    1.5188   -0.6784 O.3       1 <0>        -0.7063
     15 N1          3.5958    3.4745   -0.4062 N.2       1 <0>        -1.0550
     16 S1          4.9901    4.3266   -0.6750 S.o2      1 <0>         2.6546
     17 O3          5.8562    4.0423    0.4151 O.2       1 <0>        -0.9991
     18 O4          5.3603    4.0843   -2.0253 O.2       1 <0>        -1.0009
     19 C13         4.5847    6.0376   -0.5632 C.ar      1 <0>        -0.6843
     20 C14         4.1796    6.7382   -1.6893 C.ar      1 <0>         0.0209
     21 C15         3.8707    8.0829   -1.5541 C.ar      1 <0>        -0.1992
     22 C16         3.9761    8.6764   -0.3102 C.ar      1 <0>         0.1312
     23 N2          4.3652    7.9791    0.7391 N.ar      1 <0>        -0.5019
     24 C17         4.6610    6.6970    0.6488 C.ar      1 <0>         0.1934
     25 H1         -0.9110    1.8980    0.4867 H         1 <0>         0.1213
     26 H2          1.1560    3.1675    0.0843 H         1 <0>         0.1400
     27 H3          3.3044   -0.5081   -0.4163 H         1 <0>         0.1402
     28 H4         -0.8822   -0.5600    0.4331 H         1 <0>         0.1220
     29 H5         -0.8138   -2.1209   -0.3926 H         1 <0>         0.0748
     30 H6          0.5163   -2.9171    2.1949 H         1 <0>         0.0806
     31 H7         -1.0717   -2.1318    1.9272 H         1 <0>         0.0706
     32 H8         -1.0030   -4.7360    2.6222 H         1 <0>         0.0691
     33 H9         -2.1228   -4.2155    1.3201 H         1 <0>         0.0676
     34 H10         0.6601   -5.4790    1.0471 H         1 <0>         0.0693
     35 H11        -0.8575   -5.9472    0.2178 H         1 <0>         0.0673
     36 H12        -0.6975   -4.2042   -1.3252 H         1 <0>         0.0746
     37 H13         1.0418   -4.2855   -0.9258 H         1 <0>         0.0819
     38 H14         4.1068    6.2480   -2.6488 H         1 <0>         0.1487
     39 H15         3.5521    8.6595   -2.4099 H         1 <0>         0.1398
     40 H16         3.7373    9.7235   -0.1965 H         1 <0>         0.1579
     41 H17         4.9711    6.1573    1.5314 H         1 <0>         0.1709
@<TRIPOS>BOND
     1    1    6 ar
     2    1    2 ar
     3    1   25 1
     4    2    3 ar
     5    2   26 1
     6    3    4 ar
     7    3   13 1
     8    4    5 ar
     9    4   27 1
    10    5    6 ar
    11    5    7 1
    12    6   28 1
    13    7    8 1
    14    8   12 1
    15    8    9 1
    16    8   29 1
    17    9   10 1
    18    9   30 1
    19    9   31 1
    20   10   11 1
    21   10   32 1
    22   10   33 1
    23   11   12 1
    24   11   34 1
    25   11   35 1
    26   12   36 1
    27   12   37 1
    28   13   14 1
    29   13   15 2
    30   15   16 1
    31   16   17 2
    32   16   18 2
    33   16   19 1
    34   19   24 ar
    35   19   20 ar
    36   20   21 ar
    37   20   38 1
    38   21   22 ar
    39   21   39 1
    40   22   23 ar
    41   22   40 1
    42   23   24 ar
    43   24   41 1
@<TRIPOS>MOLECULE
ZINC35683984
   47    50     0     0     0
SMALL
USER_CHARGES

@<TRIPOS>ATOM
      1 C1         -0.0184    1.5028    0.0103 C.3       1 <0>        -0.1525
      2 C2          0.0021   -0.0041    0.0020 C.2       1 <0>         0.5547
      3 O1          1.0608   -0.5963   -0.0113 O.2       1 <0>        -0.5483
      4 N1         -1.1558   -0.6938    0.0094 N.am      1 <0>        -0.4763
      5 C3         -1.2786   -2.1602    0.0086 C.3       1 <0>         0.1813
      6 H1         -0.8183   -2.5841    0.9010 H         1 <0>         0.1137
      7 C4         -2.8020   -2.3956    0.0200 C.3       1 <0>        -0.1266
      8 C5         -3.3861   -1.0010    0.0261 C.2       1 <0>         0.1698
      9 N2         -2.4320   -0.1347    0.0250 N.2       1 <0>        -0.1894
     10 C6         -4.8244   -0.6817    0.0375 C.ar      1 <0>        -0.1246
     11 C7         -5.7717   -1.7078    0.0494 C.ar      1 <0>        -0.0425
     12 C8         -7.1164   -1.4023    0.0600 C.ar      1 <0>        -0.2288
     13 C9         -7.5333   -0.0816    0.0585 C.ar      1 <0>        -0.0474
     14 C10        -6.6078    0.9437    0.0463 C.ar      1 <0>        -0.2626
     15 C11        -5.2505    0.6554    0.0423 C.ar      1 <0>         0.3137
     16 N3         -4.3154    1.6882    0.0364 N.2       1 <0>        -1.0390
     17 S1         -4.8228    3.2646    0.0421 S.o2      1 <0>         2.5951
     18 O2         -5.4811    3.4839   -1.1979 O.2       1 <0>        -1.0299
     19 O3         -5.4620    3.4809    1.2927 O.2       1 <0>        -1.0299
     20 C12        -3.3802    4.2762    0.0323 C.ar      1 <0>        -0.6091
     21 C13        -2.8018    4.6670    1.2255 C.ar      1 <0>        -0.0230
     22 C14        -1.6701    5.4606    1.2178 C.ar      1 <0>        -0.1471
     23 C15        -1.1164    5.8632    0.0168 C.ar      1 <0>        -0.0831
     24 C16        -1.6942    5.4717   -1.1764 C.ar      1 <0>        -0.1470
     25 C17        -2.8234    4.6745   -1.1687 C.ar      1 <0>        -0.0230
     26 C18        -0.6578   -2.7436   -1.2345 C.2       1 <0>        -0.0004
     27 C19         0.0504   -3.8854   -1.2985 C.2       1 <0>        -0.2017
     28 C20         0.4396   -4.0509   -2.6476 C.2       1 <0>        -0.2144
     29 C21        -0.0541   -3.0003   -3.3273 C.2       1 <0>        -0.0422
     30 O4         -0.7228   -2.2148   -2.4673 O.3       1 <0>        -0.1633
     31 H2          1.0042    1.8801    0.0026 H         1 <0>         0.0798
     32 H3         -0.5455    1.8639   -0.8728 H         1 <0>         0.0923
     33 H4         -0.5286    1.8543    0.9071 H         1 <0>         0.0928
     34 H5         -3.1121   -2.9360   -0.8744 H         1 <0>         0.1000
     35 H6         -3.0984   -2.9382    0.9177 H         1 <0>         0.1048
     36 H7         -5.4516   -2.7393    0.0499 H         1 <0>         0.1103
     37 H8         -7.8479   -2.1967    0.0691 H         1 <0>         0.1075
     38 H9         -8.5886    0.1480    0.0665 H         1 <0>         0.1054
     39 H10        -6.9409    1.9711    0.0449 H         1 <0>         0.1016
     40 H11        -3.2344    4.3525    2.1638 H         1 <0>         0.1340
     41 H12        -1.2186    5.7665    2.1500 H         1 <0>         0.1241
     42 H13        -0.2325    6.4838    0.0108 H         1 <0>         0.1216
     43 H14        -1.2617    5.7865   -2.1146 H         1 <0>         0.1239
     44 H15        -3.2727    4.3655   -2.1009 H         1 <0>         0.1338
     45 H16         0.2785   -4.5483   -0.4769 H         1 <0>         0.1463
     46 H17         1.0219   -4.8645   -3.0544 H         1 <0>         0.1462
     47 H18         0.0638   -2.8210   -4.3858 H         1 <0>         0.1994
@<TRIPOS>BOND
     1    1    2 1
     2    1   31 1
     3    1   32 1
     4    1   33 1
     5    2    3 2
     6    2    4 am
     7    4    9 1
     8    4    5 1
     9    5    6 1
    10    5    7 1
    11    5   26 1
    12    7    8 1
    13    7   34 1
    14    7   35 1
    15    8    9 2
    16    8   10 1
    17   10   15 ar
    18   10   11 ar
    19   11   12 ar
    20   11   36 1
    21   12   13 ar
    22   12   37 1
    23   13   14 ar
    24   13   38 1
    25   14   15 ar
    26   14   39 1
    27   15   16 1
    28   16   17 1
    29   17   18 2
    30   17   19 2
    31   17   20 1
    32   20   25 ar
    33   20   21 ar
    34   21   22 ar
    35   21   40 1
    36   22   23 ar
    37   22   41 1
    38   23   24 ar
    39   23   42 1
    40   24   25 ar
    41   24   43 1
    42   25   44 1
    43   26   30 1
    44   26   27 2
    45   27   28 1
    46   27   45 1
    47   28   29 2
    48   28   46 1
    49   29   30 1
    50   29   47 1
@<TRIPOS>MOLECULE
ZINC41918824
   35    36     0     0     0
SMALL
USER_CHARGES

@<TRIPOS>ATOM
      1 C1         -0.3515    1.3040   -0.0590 C.3       1 <0>        -0.1740
      2 C2         -0.1157   -0.2055    0.0237 C.3       1 <0>        -0.0903
      3 H1          0.3145   -0.5579   -0.9138 H         1 <0>         0.1092
      4 C3         -1.4473   -0.9167    0.2728 C.3       1 <0>        -0.1411
      5 C4         -1.2115   -2.4262    0.3555 C.3       1 <0>        -0.1161
      6 C5         -0.2482   -2.7298    1.5047 C.3       1 <0>        -0.1221
      7 C6          1.0833   -2.0186    1.2555 C.3       1 <0>        -0.1195
      8 C7          0.8475   -0.5091    1.1729 C.3       1 <0>         0.0805
      9 C8          2.1590    0.1915    0.9275 C.2       1 <0>         0.5117
     10 O1          2.5724    1.0104    1.7306 O.co2     1 <0>        -0.6661
     11 O2          2.8068   -0.0608   -0.0742 O.co2     1 <0>        -0.6724
     12 N1          0.2692   -0.0355    2.4329 N.am      1 <0>        -0.4289
     13 C9         -0.9100    0.6380    2.4190 C.2       1 <0>         0.2195
     14 C10        -1.4639    1.0855    3.5708 C.2       1 <0>        -0.2612
     15 C11        -0.8180    0.8541    4.7940 C.2       1 <0>         0.0981
     16 C12         0.3662    0.1773    4.8052 C.2       1 <0>        -0.1907
     17 C13         0.9102   -0.2777    3.5921 C.2       1 <0>         0.5441
     18 O3          1.9669   -0.8889    3.5886 O.2       1 <0>        -0.4560
     19 N2          1.0682   -0.0800    6.0826 N.pl3     1 <0>         0.0643
     20 O4          0.5923    0.3102    7.1232 O.2       1 <0>        -0.1990
     21 O5          2.1175   -0.6805    6.0853 O.3       1 <0>        -0.1256
     22 Br1        -3.1063    2.0219    3.5300 Br        1 <0>        -0.0128
     23 H2          0.3940    1.7528   -0.7154 H         1 <0>         0.0748
     24 H3         -1.3481    1.4948   -0.4570 H         1 <0>         0.0671
     25 H4         -0.2683    1.7397    0.9367 H         1 <0>         0.0605
     26 H5         -1.8775   -0.5644    1.2103 H         1 <0>         0.0640
     27 H6         -2.1335   -0.7004   -0.5459 H         1 <0>         0.0769
     28 H7         -2.1601   -2.9329    0.5330 H         1 <0>         0.0626
     29 H8         -0.7812   -2.7786   -0.5820 H         1 <0>         0.0693
     30 H9         -0.6785   -2.3774    2.4422 H         1 <0>         0.0485
     31 H10        -0.0803   -3.8052    1.5636 H         1 <0>         0.0676
     32 H11         1.7695   -2.2349    2.0743 H         1 <0>         0.0926
     33 H12         1.5136   -2.3709    0.3181 H         1 <0>         0.0891
     34 H13        -1.4110    0.8190    1.4795 H         1 <0>         0.2112
     35 H14        -1.2533    1.2081    5.7169 H         1 <0>         0.1642
@<TRIPOS>BOND
     1    1    2 1
     2    1   23 1
     3    1   24 1
     4    1   25 1
     5    2    3 1
     6    2    8 1
     7    2    4 1
     8    4    5 1
     9    4   26 1
    10    4   27 1
    11    5    6 1
    12    5   28 1
    13    5   29 1
    14    6    7 1
    15    6   30 1
    16    6   31 1
    17    7    8 1
    18    7   32 1
    19    7   33 1
    20    8    9 1
    21    8   12 1
    22    9   10 2
    23    9   11 1
    24   12   17 am
    25   12   13 1
    26   13   14 2
    27   13   34 1
    28   14   15 1
    29   14   22 1
    30   15   16 2
    31   15   35 1
    32   16   17 1
    33   16   19 1
    34   17   18 2
    35   19   20 2
    36   19   21 1
@<TRIPOS>MOLECULE
ZINC00754498
   40    42     0     0     0
SMALL
USER_CHARGES

@<TRIPOS>ATOM
      1 C1          1.1953    0.8472   -0.2625 C.3       1 <0>        -0.1003
      2 C2          1.0369   -0.6506   -0.3126 C.2       1 <0>         0.1042
      3 C3          1.0715   -1.2760   -1.5066 C.2       1 <0>        -0.2642
      4 C4          0.9258   -2.6749   -1.5727 C.2       1 <0>         0.3501
      5 C5          0.7464   -3.3865   -0.3775 C.2       1 <0>        -0.4609
      6 C6          0.7202   -2.6644    0.8408 C.2       1 <0>         0.5069
      7 O1          0.5665   -3.2533    1.8962 O.2       1 <0>        -0.5557
      8 O2          0.8708   -1.3287    0.8307 O.3       1 <0>        -0.2946
      9 C7          0.5890   -4.8452   -0.3889 C.2       1 <0>         0.3629
     10 N1          1.6491   -5.5134   -0.5951 N.2       1 <0>        -0.5464
     11 C8          1.7597   -6.9563   -0.7299 C.3       1 <0>         0.0493
     12 C9          1.1814   -7.6671    0.5003 C.3       1 <0>        -0.0951
     13 S1         -0.5639   -8.0402    0.1473 S.3       1 <0>        -0.2773
     14 C10        -1.0537   -6.6523   -0.9266 C.3       1 <0>        -0.0244
     15 H1         -0.4581   -6.6638   -1.8394 H         1 <0>         0.1317
     16 C11        -0.7973   -5.3513   -0.1504 C.3       1 <0>        -0.1012
     17 C12        -2.5167   -6.7645   -1.2703 C.ar      1 <0>         0.0041
     18 C13        -3.3594   -7.5131   -0.4698 C.ar      1 <0>        -0.1100
     19 C14        -4.7012   -7.6161   -0.7851 C.ar      1 <0>        -0.0703
     20 C15        -5.2007   -6.9701   -1.9008 C.ar      1 <0>        -0.1234
     21 C16        -4.3583   -6.2210   -2.7006 C.ar      1 <0>        -0.0578
     22 C17        -3.0170   -6.1145   -2.3828 C.ar      1 <0>        -0.0410
     23 N2         -2.1159   -5.3082   -3.2364 N.pl3     1 <0>         0.0147
     24 O3         -2.5267   -4.8330   -4.2694 O.2       1 <0>        -0.1879
     25 O4         -0.9690   -5.1247   -2.9007 O.3       1 <0>        -0.0737
     26 O5          0.9576   -3.3176   -2.7612 O.3       1 <0>        -0.6218
     27 H2          1.1478    1.1831    0.7734 H         1 <0>         0.0737
     28 H3          2.1582    1.1254   -0.6908 H         1 <0>         0.0836
     29 H4          0.3943    1.3166   -0.8337 H         1 <0>         0.0830
     30 H5          1.2106   -0.7040   -2.4122 H         1 <0>         0.1307
     31 H6          1.2142   -7.2760   -1.6178 H         1 <0>         0.0604
     32 H7          2.8100   -7.2265   -0.8391 H         1 <0>         0.0877
     33 H8          1.7278   -8.5922    0.6841 H         1 <0>         0.1053
     34 H9          1.2517   -7.0155    1.3713 H         1 <0>         0.0932
     35 H10        -0.9317   -5.5348    0.9156 H         1 <0>         0.0925
     36 H11        -1.5135   -4.5963   -0.4746 H         1 <0>         0.0788
     37 H12        -2.9693   -8.0177    0.4017 H         1 <0>         0.1548
     38 H13        -5.3594   -8.2014   -0.1601 H         1 <0>         0.1419
     39 H14        -6.2490   -7.0511   -2.1476 H         1 <0>         0.1444
     40 H15        -4.7484   -5.7168   -3.5723 H         1 <0>         0.1522
@<TRIPOS>BOND
     1    1    2 1
     2    1   27 1
     3    1   28 1
     4    1   29 1
     5    2    8 1
     6    2    3 2
     7    3    4 1
     8    3   30 1
     9    4    5 2
    10    4   26 1
    11    5    6 1
    12    5    9 1
    13    6    7 2
    14    6    8 1
    15    9   16 1
    16    9   10 2
    17   10   11 1
    18   11   12 1
    19   11   31 1
    20   11   32 1
    21   12   13 1
    22   12   33 1
    23   12   34 1
    24   13   14 1
    25   14   15 1
    26   14   16 1
    27   14   17 1
    28   16   35 1
    29   16   36 1
    30   17   22 ar
    31   17   18 ar
    32   18   19 ar
    33   18   37 1
    34   19   20 ar
    35   19   38 1
    36   20   21 ar
    37   20   39 1
    38   21   22 ar
    39   21   40 1
    40   22   23 1
    41   23   24 2
    42   23   25 1
@<TRIPOS>MOLECULE
ZINC65247096
   43    45     0     0     0
SMALL
USER_CHARGES

@<TRIPOS>ATOM
      1 C1         -0.0187    1.5258    0.0104 C.3       1 <0>        -0.1480
      2 C2          0.0021   -0.0041    0.0020 C.3       1 <0>        -0.1150
      3 C3          0.7182   -0.4975   -1.2568 C.3       1 <0>         0.2198
      4 H1          0.2509   -0.0692   -2.1435 H         1 <0>         0.1309
      5 N1          2.1386   -0.1236   -1.2066 N.2       1 <0>        -0.0470
      6 N2          3.0529   -0.8655   -1.5438 N.2       1 <0>        -0.2150
      7 C4          2.9439   -2.1232   -2.0058 C.2       1 <0>         0.4400
      8 O1          3.9329   -2.7792   -2.2323 O.2       1 <0>        -0.3877
      9 C5          1.5705   -2.7064   -2.2378 C.3       1 <0>         0.0651
     10 H2          1.2609   -2.6168   -3.2790 H         1 <0>         0.1209
     11 N3          0.6686   -1.9644   -1.3211 N.pl3     1 <0>        -0.6573
     12 C6         -0.0751   -2.8581   -0.5974 C.2       1 <0>         0.2377
     13 C7          0.3164   -4.1056   -0.7447 C.2       1 <0>        -0.7513
     14 C8          1.4817   -4.1536   -1.7344 C.3       1 <0>        -0.0267
     15 S1         -0.3901   -5.5014    0.0659 S.o2      1 <0>         2.6282
     16 O2         -1.5644   -5.0400    0.7197 O.2       1 <0>        -1.0413
     17 O3         -0.4128   -6.5557   -0.8865 O.2       1 <0>        -1.0347
     18 N4          0.6646   -5.9617    1.2567 N.2       1 <0>        -1.0888
     19 C9          0.3632   -7.0549    2.0722 C.ar      1 <0>         0.2838
     20 C10        -0.8183   -7.7606    1.8821 C.ar      1 <0>        -0.2681
     21 C11        -1.1129   -8.8411    2.6898 C.ar      1 <0>        -0.0700
     22 C12        -0.2336   -9.2208    3.6875 C.ar      1 <0>        -0.2239
     23 C13         0.9429   -8.5203    3.8798 C.ar      1 <0>        -0.0551
     24 C14         1.2467   -7.4423    3.0714 C.ar      1 <0>        -0.1542
     25 C15         2.5324   -6.6836    3.2774 C.3       1 <0>        -0.0780
     26 C16         1.8975   -8.9371    4.9689 C.3       1 <0>        -0.1052
     27 H3          1.0039    1.9031    0.0027 H         1 <0>         0.0711
     28 H4         -0.5459    1.8868   -0.8726 H         1 <0>         0.0584
     29 H5         -0.5289    1.8773    0.9072 H         1 <0>         0.0666
     30 H6          0.5293   -0.3651    0.8851 H         1 <0>         0.0824
     31 H7         -1.0205   -0.3814    0.0098 H         1 <0>         0.0897
     32 H8         -0.9022   -2.5672    0.0333 H         1 <0>         0.1669
     33 H9          1.2629   -4.8329   -2.5583 H         1 <0>         0.0967
     34 H10         2.4059   -4.4424   -1.2338 H         1 <0>         0.0915
     35 H11        -1.5057   -7.4642    1.1036 H         1 <0>         0.0945
     36 H12        -2.0312   -9.3901    2.5425 H         1 <0>         0.0991
     37 H13        -0.4666  -10.0660    4.3181 H         1 <0>         0.0988
     38 H14         2.3672   -5.8753    3.9897 H         1 <0>         0.0440
     39 H15         3.2949   -7.3593    3.6649 H         1 <0>         0.0385
     40 H16         2.8651   -6.2675    2.3264 H         1 <0>         0.0698
     41 H17         2.6076   -9.6625    4.5717 H         1 <0>         0.0589
     42 H18         2.4369   -8.0628    5.3334 H         1 <0>         0.0606
     43 H19         1.3387   -9.3874    5.7893 H         1 <0>         0.0538
@<TRIPOS>BOND
     1    1    2 1
     2    1   27 1
     3    1   28 1
     4    1   29 1
     5    2    3 1
     6    2   30 1
     7    2   31 1
     8    3    4 1
     9    3   11 1
    10    3    5 1
    11    5    6 2
    12    6    7 1
    13    7    8 2
    14    7    9 1
    15    9   10 1
    16    9   14 1
    17    9   11 1
    18   11   12 1
    19   12   13 2
    20   12   32 1
    21   13   14 1
    22   13   15 1
    23   14   33 1
    24   14   34 1
    25   15   16 2
    26   15   17 2
    27   15   18 1
    28   18   19 1
    29   19   24 ar
    30   19   20 ar
    31   20   21 ar
    32   20   35 1
    33   21   22 ar
    34   21   36 1
    35   22   23 ar
    36   22   37 1
    37   23   24 ar
    38   23   26 1
    39   24   25 1
    40   25   38 1
    41   25   39 1
    42   25   40 1
    43   26   41 1
    44   26   42 1
    45   26   43 1
@<TRIPOS>MOLECULE
ZINC66519890
   46    47     0     0     0
SMALL
USER_CHARGES

@<TRIPOS>ATOM
      1 C1         -0.7099    1.4275    0.1063 C.3       1 <0>         0.0328
      2 O1         -0.7315   -0.0014    0.1024 O.3       1 <0>        -0.3537
      3 C2          0.1640   -0.6265    0.8829 C.2       1 <0>         0.4647
      4 O2          0.9404    0.0182    1.5474 O.2       1 <0>        -0.5056
      5 C3          0.2010   -2.1323    0.9303 C.3       1 <0>        -0.0751
      6 C4         -1.1498   -2.6603    1.4189 C.3       1 <0>        -0.1242
      7 C5         -1.1201   -4.1918    1.4329 C.3       1 <0>         0.1283
      8 N1          0.0274   -4.6352    2.2362 N.pl3     1 <0>        -1.0002
      9 C6          1.3621   -4.1159    1.9083 C.3       1 <0>         0.1276
     10 C7          1.3046   -2.5852    1.8890 C.3       1 <0>        -0.1172
     11 S1         -0.1797   -5.6996    3.4878 S.o2      1 <0>         2.7517
     12 O3          0.9131   -5.5018    4.3743 O.2       1 <0>        -1.0252
     13 O4         -1.5321   -5.5762    3.9062 O.2       1 <0>        -1.0253
     14 N2         -0.0142   -7.2253    2.8655 N.2       1 <0>        -1.0749
     15 C8         -0.1316   -8.2621    3.6440 C.2       1 <0>         0.5135
     16 O5         -0.3890   -8.0932    4.9615 O.3       1 <0>        -0.7101
     17 C9          0.0156   -9.6193    3.0905 C.2       1 <0>        -0.1396
     18 C10        -0.2338  -10.6782    3.8527 C.2       1 <0>        -0.0751
     19 C11        -0.9853  -10.5349    5.1577 C.3       1 <0>        -0.1158
     20 C12        -2.1376  -11.5449    5.1698 C.3       1 <0>        -0.1171
     21 C13        -1.5862  -12.9479    4.9108 C.3       1 <0>        -0.1199
     22 C14        -0.9703  -13.0131    3.5122 C.3       1 <0>        -0.1148
     23 C15         0.2208  -12.0592    3.4350 C.3       1 <0>        -0.0848
     24 H1          0.2662    1.7770   -0.2300 H         1 <0>         0.0582
     25 H2         -1.4818    1.8043   -0.5648 H         1 <0>         0.0998
     26 H3         -0.8978    1.7909    1.1166 H         1 <0>         0.0589
     27 H4          0.4038   -2.5221   -0.0671 H         1 <0>         0.1124
     28 H5         -1.3421   -2.2909    2.4262 H         1 <0>         0.0720
     29 H6         -1.9383   -2.3178    0.7487 H         1 <0>         0.0853
     30 H7         -2.0424   -4.5712    1.8727 H         1 <0>         0.0957
     31 H8         -1.0185   -4.5647    0.4137 H         1 <0>         0.0671
     32 H9          2.0776   -4.4452    2.6618 H         1 <0>         0.0960
     33 H10         1.6662   -4.4825    0.9279 H         1 <0>         0.0656
     34 H11         2.2631   -2.1893    1.5534 H         1 <0>         0.0804
     35 H12         1.0892   -2.2165    2.8919 H         1 <0>         0.0758
     36 H13         0.3264   -9.7534    2.0649 H         1 <0>         0.1163
     37 H14        -0.3129  -10.7366    5.9915 H         1 <0>         0.0603
     38 H15        -1.3838   -9.5238    5.2415 H         1 <0>         0.1333
     39 H16        -2.6310  -11.5218    6.1414 H         1 <0>         0.0575
     40 H17        -2.8553  -11.2869    4.3911 H         1 <0>         0.0567
     41 H18        -0.8233  -13.1802    5.6539 H         1 <0>         0.0585
     42 H19        -2.3954  -13.6745    4.9846 H         1 <0>         0.0531
     43 H20        -0.6365  -14.0306    3.3091 H         1 <0>         0.0570
     44 H21        -1.7157  -12.7203    2.7728 H         1 <0>         0.0610
     45 H22         0.5969  -12.0270    2.4124 H         1 <0>         0.0662
     46 H23         1.0069  -12.4046    4.1064 H         1 <0>         0.0730
@<TRIPOS>BOND
     1    1    2 1
     2    1   24 1
     3    1   25 1
     4    1   26 1
     5    2    3 1
     6    3    4 2
     7    3    5 1
     8    5   10 1
     9    5    6 1
    10    5   27 1
    11    6    7 1
    12    6   28 1
    13    6   29 1
    14    7    8 1
    15    7   30 1
    16    7   31 1
    17    8    9 1
    18    8   11 1
    19    9   10 1
    20    9   32 1
    21    9   33 1
    22   10   34 1
    23   10   35 1
    24   11   12 2
    25   11   13 2
    26   11   14 1
    27   14   15 2
    28   15   16 1
    29   15   17 1
    30   17   18 2
    31   17   36 1
    32   18   23 1
    33   18   19 1
    34   19   20 1
    35   19   37 1
    36   19   38 1
    37   20   21 1
    38   20   39 1
    39   20   40 1
    40   21   22 1
    41   21   41 1
    42   21   42 1
    43   22   23 1
    44   22   43 1
    45   22   44 1
    46   23   45 1
    47   23   46 1
@<TRIPOS>MOLECULE
ZINC15867265
   38    40     0     0     0
SMALL
USER_CHARGES
(7R)-7-(2,3,4-trimethoxyphenyl)-4,7-dihydrotetrazolo[1,5-a]pyrimidine-5-carboxylic acid
@<TRIPOS>ATOM
      1 C1          1.9954    3.7253   -6.1211 C.3       1 <0>         0.0186
      2 O1          2.0009    4.5786   -4.9749 O.3       1 <0>        -0.3023
      3 C2          1.7602    3.9956   -3.7700 C.ar      1 <0>         0.1366
      4 C3          1.5244    2.6310   -3.6936 C.ar      1 <0>        -0.1972
      5 C4          1.2857    2.0366   -2.4689 C.ar      1 <0>        -0.0455
      6 C5          1.2697    2.8007   -1.3169 C.ar      1 <0>        -0.1519
      7 C6          1.5046    4.1655   -1.3847 C.ar      1 <0>         0.1496
      8 C7          1.7506    4.7662   -2.6137 C.ar      1 <0>         0.0419
      9 O2          1.9811    6.1056   -2.6846 O.3       1 <0>        -0.3175
     10 C8          0.8436    6.9509   -2.8676 C.3       1 <0>         0.0335
     11 O3          1.4937    4.9155   -0.2502 O.3       1 <0>        -0.3276
     12 C9          2.7533    5.1562    0.3804 C.3       1 <0>         0.0309
     13 C10         1.0029    2.1484    0.0152 C.3       1 <0>         0.2267
     14 H1          1.0568    2.8902    0.8257 H         1 <0>         0.1296
     15 C11        -0.3564    1.5025   -0.0070 C.3       1 <0>        -0.1801
     16 C12        -0.5395    0.1872   -0.0424 C.2       1 <0>         0.2240
     17 N1          0.5387   -0.7140   -0.0546 N.2       1 <0>        -0.4209
     18 C13         1.7928   -0.1992    0.2319 C.2       1 <0>         0.4093
     19 N2          2.0226    1.1393    0.2739 N.pl3     1 <0>        -0.4171
     20 N3          3.3721    1.2758    0.5955 N.2       1 <0>        -0.0879
     21 N4          3.8453    0.0774    0.7140 N.2       1 <0>        -0.0438
     22 N5          2.9201   -0.7944    0.4996 N.2       1 <0>        -0.3127
     23 C14        -1.9150   -0.3429   -0.0692 C.2       1 <0>         0.4876
     24 O4         -2.8605    0.4202   -0.0588 O.co2     1 <0>        -0.6062
     25 O5         -2.1237   -1.6739   -0.1052 O.co2     1 <0>        -0.6859
     26 H2          2.2020    4.3209   -7.0226 H         1 <0>         0.1049
     27 H3          1.0101    3.2456   -6.2164 H         1 <0>         0.0606
     28 H4          2.7699    2.9526   -6.0066 H         1 <0>         0.0594
     29 H5          1.5316    2.0314   -4.5918 H         1 <0>         0.1421
     30 H6          1.1071    0.9730   -2.4122 H         1 <0>         0.1305
     31 H7          1.1696    8.0007   -2.9075 H         1 <0>         0.0938
     32 H8          0.1468    6.8150   -2.0273 H         1 <0>         0.0515
     33 H9          0.3388    6.6876   -3.8088 H         1 <0>         0.0462
     34 H10         2.6015    5.7708    1.2800 H         1 <0>         0.0990
     35 H11         3.4176    5.6862   -0.3180 H         1 <0>         0.0554
     36 H12         3.2103    4.1968    0.6646 H         1 <0>         0.0568
     37 H13        -0.9136    1.7896    0.8969 H         1 <0>         0.1502
     38 H14        -0.9068    1.8370   -0.8987 H         1 <0>         0.1579
@<TRIPOS>BOND
     1    1    2 1
     2    1   26 1
     3    1   27 1
     4    1   28 1
     5    2    3 1
     6    3    8 ar
     7    3    4 ar
     8    4    5 ar
     9    4   29 1
    10    5    6 ar
    11    5   30 1
    12    6    7 ar
    13    6   13 1
    14    7    8 ar
    15    7   11 1
    16    8    9 1
    17    9   10 1
    18   10   31 1
    19   10   32 1
    20   10   33 1
    21   11   12 1
    22   12   34 1
    23   12   35 1
    24   12   36 1
    25   13   14 1
    26   13   19 1
    27   13   15 1
    28   15   16 1
    29   15   37 1
    30   15   38 1
    31   16   17 2
    32   16   23 1
    33   17   18 1
    34   18   22 2
    35   18   19 1
    36   19   20 1
    37   20   21 2
    38   21   22 1
    39   23   24 2
    40   23   25 1
@<TRIPOS>MOLECULE
ZINC38030638
   40    41     0     0     0
SMALL
USER_CHARGES

@<TRIPOS>ATOM
      1 C1          1.3812   -2.1527    2.7920 C.3       1 <0>        -0.1978
      2 C2          0.8796   -1.8996    1.3689 C.3       1 <0>         0.1684
      3 H1          1.6383   -2.2149    0.6526 H         1 <0>         0.0557
      4 C3         -0.4110   -2.6899    1.1311 C.3       1 <0>        -0.1294
      5 C4         -0.9821   -2.3257   -0.2412 C.3       1 <0>        -0.1127
      6 C5         -1.3165   -0.8326   -0.2765 C.3       1 <0>        -0.1328
      7 C6         -0.0361   -0.0213   -0.0547 C.3       1 <0>         0.1273
      8 N1          0.6001   -0.4680    1.1924 N.pl3     1 <0>        -0.9876
      9 S1          0.9906    0.6202    2.3780 S.o2      1 <0>         2.7103
     10 O1          2.1877    0.1503    2.9824 O.2       1 <0>        -1.0546
     11 O2          0.8882    1.9115    1.7937 O.2       1 <0>        -1.0636
     12 N2         -0.1909    0.5291    3.5347 N.2       1 <0>        -1.0988
     13 C7         -0.1230    1.3500    4.6766 C.2       1 <0>         0.1489
     14 C8          0.8790    2.2891    4.9598 C.2       1 <0>        -0.0381
     15 N3          0.6010    2.8557    6.1061 N.2       1 <0>        -0.2718
     16 N4         -0.5875    2.2997    6.5964 N.pl3     1 <0>        -0.3918
     17 C9         -1.0187    1.3768    5.6957 C.2       1 <0>        -0.0724
     18 C10        -1.2507    2.6530    7.8540 C.3       1 <0>         0.1705
     19 C11        -0.2789    2.4974    8.9953 C.2       1 <0>         0.4365
     20 O3          0.8516    2.1292    8.7802 O.2       1 <0>        -0.4703
     21 O4         -0.6693    2.7679   10.2508 O.3       1 <0>        -0.3613
     22 C12         0.3039    2.5987   11.2834 C.3       1 <0>         0.0359
     23 H2          0.7165   -1.6633    3.5039 H         1 <0>         0.0851
     24 H3          1.3959   -3.2251    2.9868 H         1 <0>         0.0536
     25 H4          2.3884   -1.7500    2.8993 H         1 <0>         0.0984
     26 H5         -0.1949   -3.7578    1.1635 H         1 <0>         0.0609
     27 H6         -1.1374   -2.4417    1.9050 H         1 <0>         0.0737
     28 H7         -0.2456   -2.5512   -1.0125 H         1 <0>         0.0553
     29 H8         -1.8873   -2.9049   -0.4233 H         1 <0>         0.0560
     30 H9         -1.7448   -0.5786   -1.2461 H         1 <0>         0.0624
     31 H10        -2.0343   -0.6019    0.5106 H         1 <0>         0.0710
     32 H11         0.6471   -0.1815   -0.8887 H         1 <0>         0.0514
     33 H12        -0.2830    1.0378    0.0198 H         1 <0>         0.0874
     34 H13         1.7345    2.5076    4.3378 H         1 <0>         0.1588
     35 H14        -1.9108    0.7736    5.7773 H         1 <0>         0.1592
     36 H15        -1.5928    3.6868    7.8065 H         1 <0>         0.1124
     37 H16        -2.1049    1.9945    8.0118 H         1 <0>         0.1287
     38 H17         0.6413    1.5624   11.2985 H         1 <0>         0.0580
     39 H18         1.1534    3.2546   11.0931 H         1 <0>         0.0585
     40 H19        -0.1406    2.8501   12.2463 H         1 <0>         0.0987
@<TRIPOS>BOND
     1    1    2 1
     2    1   23 1
     3    1   24 1
     4    1   25 1
     5    2    3 1
     6    2    8 1
     7    2    4 1
     8    4    5 1
     9    4   26 1
    10    4   27 1
    11    5    6 1
    12    5   28 1
    13    5   29 1
    14    6    7 1
    15    6   30 1
    16    6   31 1
    17    7    8 1
    18    7   32 1
    19    7   33 1
    20    8    9 1
    21    9   10 2
    22    9   11 2
    23    9   12 1
    24   12   13 1
    25   13   17 2
    26   13   14 1
    27   14   15 2
    28   14   34 1
    29   15   16 1
    30   16   17 1
    31   16   18 1
    32   17   35 1
    33   18   19 1
    34   18   36 1
    35   18   37 1
    36   19   20 2
    37   19   21 1
    38   21   22 1
    39   22   38 1
    40   22   39 1
    41   22   40 1
@<TRIPOS>MOLECULE
ZINC44610173
   24    26     0     0     0
SMALL
USER_CHARGES

@<TRIPOS>ATOM
      1 C1         -0.0035    1.3795   -0.2921 C.ar      1 <0>        -0.0310
      2 C2          1.1813    2.0529   -0.1723 C.ar      1 <0>        -0.1465
      3 C3          2.3785    1.3380   -0.1774 C.ar      1 <0>         0.0726
      4 N1          2.3838    0.0161   -0.2966 N.ar      1 <0>        -0.4943
      5 C4          1.2681   -0.6710   -0.4141 C.ar      1 <0>         0.1396
      6 C5          0.0308   -0.0198   -0.4167 C.ar      1 <0>        -0.1632
      7 C6         -1.2170   -0.7884   -0.5477 C.2       1 <0>         0.5237
      8 O1         -2.2949   -0.2094   -0.5486 O.co2     1 <0>        -0.6784
      9 O2         -1.1767   -2.0065   -0.6557 O.co2     1 <0>        -0.6779
     10 S1          3.9064    2.2021   -0.0240 S.3       1 <0>         0.1015
     11 C7          5.1093    0.9212    0.1068 C.2       1 <0>         0.0601
     12 C8          6.0427    0.7509   -0.8743 C.2       1 <0>         0.1073
     13 N2          6.9573   -0.2113   -0.7912 N.2       1 <0>        -0.4247
     14 C9          6.9983   -1.0316    0.2339 C.2       1 <0>         0.2044
     15 C10         6.0601   -0.8992    1.2721 C.2       1 <0>         0.1762
     16 N3          5.1189    0.0951    1.1921 N.pl3     1 <0>        -0.2560
     17 N4          4.3513   -0.0257    2.3547 N.2       1 <0>        -0.0701
     18 N5          4.8399   -1.0129    3.0278 N.2       1 <0>        -0.0097
     19 N6          5.8348   -1.5420    2.4072 N.2       1 <0>        -0.2947
     20 H1         -0.9438    1.9106   -0.2863 H         1 <0>         0.1480
     21 H2          1.1892    3.1285   -0.0751 H         1 <0>         0.1355
     22 H3          1.3082   -1.7460   -0.5095 H         1 <0>         0.1653
     23 H4          6.0384    1.4075   -1.7318 H         1 <0>         0.2044
     24 H5          7.7503   -1.8055    0.2788 H         1 <0>         0.2078
@<TRIPOS>BOND
     1    1    6 ar
     2    1    2 ar
     3    1   20 1
     4    2    3 ar
     5    2   21 1
     6    3    4 ar
     7    3   10 1
     8    4    5 ar
     9    5    6 ar
    10    5   22 1
    11    6    7 1
    12    7    8 2
    13    7    9 1
    14   10   11 1
    15   11   16 1
    16   11   12 2
    17   12   13 1
    18   12   23 1
    19   13   14 2
    20   14   15 1
    21   14   24 1
    22   15   19 2
    23   15   16 1
    24   16   17 1
    25   17   18 2
    26   18   19 1
@<TRIPOS>MOLECULE
ZINC50162165
   33    34     0     0     0
SMALL
USER_CHARGES

@<TRIPOS>ATOM
      1 C1         -0.0169    1.3945    0.0097 C.2       1 <0>        -0.2142
      2 C2          1.2648    1.8283   -0.0002 C.2       1 <0>         0.0709
      3 N1          2.0664    0.7428   -0.0137 N.pl3     1 <0>        -0.3181
      4 N2          1.2503   -0.3958   -0.0120 N.2       1 <0>        -0.1754
      5 C3          0.0021   -0.0041    0.0020 C.2       1 <0>         0.1068
      6 N3         -1.1850   -0.8882    0.0090 N.pl3     1 <0>         0.0641
      7 O1         -2.2952   -0.4096    0.0226 O.2       1 <0>        -0.1358
      8 O2         -1.0445   -2.0890    0.0012 O.3       1 <0>        -0.1256
      9 C4          3.5313    0.7533   -0.0280 C.3       1 <0>         0.1072
     10 C5          4.0508   -0.0641    1.1266 C.2       1 <0>         0.4997
     11 O3          3.2739   -0.6023    1.8866 O.2       1 <0>        -0.5209
     12 N4          5.3788   -0.1969    1.3146 N.am      1 <0>        -0.5977
     13 C6          6.3323    0.4542    0.4059 C.3       1 <0>         0.1017
     14 C7          7.3085   -0.6012   -0.1232 C.3       1 <0>        -0.1114
     15 C8          7.9595   -1.3255    1.0573 C.3       1 <0>        -0.1546
     16 C9          6.8815   -2.0342    1.8806 C.3       1 <0>        -0.1115
     17 C10         5.9004   -0.9905    2.4356 C.3       1 <0>         0.1147
     18 C11         8.9458   -2.3413    0.5411 C.2       1 <0>         0.4964
     19 O4         10.0137   -2.4972    1.1084 O.co2     1 <0>        -0.7006
     20 O5          8.6759   -3.0071   -0.4440 O.co2     1 <0>        -0.6953
     21 H1         -0.8986    2.0179    0.0255 H         1 <0>         0.1758
     22 H2          1.5883    2.8587    0.0017 H         1 <0>         0.2005
     23 H3          3.8885    0.3264   -0.9652 H         1 <0>         0.1302
     24 H4          3.8882    1.7791    0.0633 H         1 <0>         0.1400
     25 H5          5.7934    0.9042   -0.4279 H         1 <0>         0.0751
     26 H6          6.8837    1.2242    0.9454 H         1 <0>         0.0740
     27 H7          6.7681   -1.3208   -0.7383 H         1 <0>         0.0736
     28 H8          8.0792   -0.1161   -0.7222 H         1 <0>         0.0707
     29 H9          8.4790   -0.6019    1.6855 H         1 <0>         0.0627
     30 H10         6.3451   -2.7403    1.2466 H         1 <0>         0.0669
     31 H11         7.3483   -2.5691    2.7077 H         1 <0>         0.0724
     32 H12         6.4174   -0.3359    3.1373 H         1 <0>         0.0688
     33 H13         5.0766   -1.4940    2.9415 H         1 <0>         0.0890
@<TRIPOS>BOND
     1    1    5 1
     2    1    2 2
     3    1   21 1
     4    2    3 1
     5    2   22 1
     6    3    4 1
     7    3    9 1
     8    4    5 2
     9    5    6 1
    10    6    7 2
    11    6    8 1
    12    9   10 1
    13    9   23 1
    14    9   24 1
    15   10   11 2
    16   10   12 am
    17   12   17 1
    18   12   13 1
    19   13   14 1
    20   13   25 1
    21   13   26 1
    22   14   15 1
    23   14   27 1
    24   14   28 1
    25   15   16 1
    26   15   18 1
    27   15   29 1
    28   16   17 1
    29   16   30 1
    30   16   31 1
    31   17   32 1
    32   17   33 1
    33   18   19 2
    34   18   20 1
@<TRIPOS>MOLECULE
ZINC62916636
   36    37     0     0     0
SMALL
USER_CHARGES

@<TRIPOS>ATOM
      1 C1         -0.0187    1.5258    0.0104 C.3       1 <0>        -0.1577
      2 C2          0.0021   -0.0041    0.0020 C.3       1 <0>        -0.0882
      3 C3         -1.4333   -0.5336    0.0129 C.3       1 <0>        -0.1410
      4 C4         -2.1667   -0.1243   -1.2853 C.3       1 <0>        -0.1062
      5 C5         -2.0211   -1.3845   -2.1749 C.3       1 <0>         0.0926
      6 N1         -2.1567   -2.4994   -1.2093 N.am      1 <0>        -0.6089
      7 C6         -1.4354   -2.0737    0.0046 C.3       1 <0>         0.1182
      8 C7         -2.8071   -3.6643   -1.4005 C.2       1 <0>         0.5123
      9 O1         -2.8382   -4.4937   -0.5162 O.2       1 <0>        -0.5143
     10 C8         -3.4957   -3.9362   -2.7131 C.3       1 <0>         0.1123
     11 N2         -4.1241   -5.2589   -2.6701 N.pl3     1 <0>        -0.3170
     12 C9         -5.4225   -5.5294   -2.9190 C.2       1 <0>         0.0731
     13 C10        -5.6008   -6.8631   -2.7754 C.2       1 <0>        -0.2143
     14 C11        -4.3692   -7.4269   -2.4267 C.2       1 <0>         0.1067
     15 N3         -3.4819   -6.4670   -2.3692 N.2       1 <0>        -0.1777
     16 N4         -4.1124   -8.8624   -2.1732 N.pl3     1 <0>         0.0652
     17 O2         -5.0143   -9.6627   -2.2621 O.2       1 <0>        -0.1358
     18 O3         -3.0009   -9.2347   -1.8773 O.3       1 <0>        -0.1279
     19 C12        -2.1724   -0.0156    1.2197 C.2       1 <0>         0.5071
     20 O4         -2.3005    1.1853    1.3870 O.co2     1 <0>        -0.6830
     21 O5         -2.6421   -0.7973    2.0289 O.co2     1 <0>        -0.6878
     22 H1          1.0039    1.9031    0.0027 H         1 <0>         0.0313
     23 H2         -0.5459    1.8868   -0.8726 H         1 <0>         0.0451
     24 H3         -0.5289    1.8773    0.9072 H         1 <0>         0.0964
     25 H4          0.5123   -0.3556   -0.8948 H         1 <0>         0.0446
     26 H5          0.5293   -0.3651    0.8851 H         1 <0>         0.0540
     27 H6         -3.2169    0.0875   -1.0850 H         1 <0>         0.0700
     28 H7         -1.6804    0.7338   -1.7492 H         1 <0>         0.0828
     29 H8         -2.8152   -1.4228   -2.9206 H         1 <0>         0.0722
     30 H9         -1.0417   -1.4068   -2.6530 H         1 <0>         0.0752
     31 H10        -0.4114   -2.4462   -0.0221 H         1 <0>         0.0552
     32 H11        -1.9467   -2.4490    0.8911 H         1 <0>         0.1037
     33 H12        -4.2583   -3.1772   -2.8874 H         1 <0>         0.1390
     34 H13        -2.7636   -3.9078   -3.5202 H         1 <0>         0.1254
     35 H14        -6.1832   -4.8103   -3.1849 H         1 <0>         0.2010
     36 H15        -6.5301   -7.3976   -2.9062 H         1 <0>         0.1760
@<TRIPOS>BOND
     1    1    2 1
     2    1   22 1
     3    1   23 1
     4    1   24 1
     5    2    3 1
     6    2   25 1
     7    2   26 1
     8    3    7 1
     9    3    4 1
    10    3   19 1
    11    4    5 1
    12    4   27 1
    13    4   28 1
    14    5    6 1
    15    5   29 1
    16    5   30 1
    17    6    7 1
    18    6    8 am
    19    7   31 1
    20    7   32 1
    21    8    9 2
    22    8   10 1
    23   10   11 1
    24   10   33 1
    25   10   34 1
    26   11   15 1
    27   11   12 1
    28   12   13 2
    29   12   35 1
    30   13   14 1
    31   13   36 1
    32   14   15 2
    33   14   16 1
    34   16   17 2
    35   16   18 1
    36   19   20 2
    37   19   21 1
@<TRIPOS>MOLECULE
ZINC05999695
   30    33     0     0     0
SMALL
USER_CHARGES
4-phenyl-5H-pyridazino[5,4-b]indole-1-thiol
@<TRIPOS>ATOM
      1 C1          1.2078   -0.6821   -0.0131 C.ar      1 <0>        -0.1301
      2 C2          0.0021   -0.0041    0.0020 C.ar      1 <0>        -0.1155
      3 C3         -0.0166    1.3757    0.0096 C.ar      1 <0>        -0.0931
      4 C4          1.1828    2.0865    0.0020 C.ar      1 <0>         0.0028
      5 C5          2.3949    1.3976   -0.0128 C.ar      1 <0>        -0.1300
      6 C6          2.4011    0.0177   -0.0203 C.ar      1 <0>        -0.1154
      7 C7          1.1694    3.5686    0.0096 C.ar      1 <0>         0.0176
      8 C8          2.1641    4.2830    0.7003 C.ar      1 <0>         0.1438
      9 C9          2.0947    5.6846    0.6680 C.ar      1 <0>        -0.1441
     10 C10         3.2329    6.1778    1.4554 C.ar      1 <0>        -0.0624
     11 C11         3.6960    7.4499    1.7870 C.ar      1 <0>        -0.0414
     12 C12         4.8258    7.5870    2.5633 C.ar      1 <0>        -0.1604
     13 C13         5.5026    6.4647    3.0167 C.ar      1 <0>        -0.0944
     14 C14         5.0563    5.2007    2.6973 C.ar      1 <0>        -0.1489
     15 C15         3.9178    5.0407    1.9137 C.ar      1 <0>         0.1297
     16 N1          3.2572    3.9175    1.4475 N.pl3     1 <0>        -0.6079
     17 H1          3.4906    2.8529    1.5963 H         1 <0>         0.4357
     18 C16         1.0472    6.2822   -0.0453 C.ar      1 <0>         0.3070
     19 N2          0.1606    5.5120   -0.6629 N.ar      1 <0>        -0.3045
     20 N3          0.2234    4.2314   -0.6390 N.ar      1 <0>        -0.1964
     21 S1          0.9083    8.0371   -0.1209 S.3       1 <0>        -0.8071
     22 H2          1.2175   -1.7620   -0.0190 H         1 <0>         0.1188
     23 H3         -0.9264   -0.5557    0.0076 H         1 <0>         0.1223
     24 H4         -0.9586    1.9041    0.0169 H         1 <0>         0.1301
     25 H5          3.3271    1.9429   -0.0185 H         1 <0>         0.1167
     26 H6          3.3394   -0.5170   -0.0314 H         1 <0>         0.1210
     27 H7          3.1712    8.3258    1.4354 H         1 <0>         0.1461
     28 H8          5.1859    8.5724    2.8197 H         1 <0>         0.1216
     29 H9          6.3872    6.5824    3.6250 H         1 <0>         0.1216
     30 H10         5.5910    4.3334    3.0553 H         1 <0>         0.1168
@<TRIPOS>BOND
     1    1    6 ar
     2    1    2 ar
     3    1   22 1
     4    2    3 ar
     5    2   23 1
     6    3    4 ar
     7    3   24 1
     8    4    5 ar
     9    4    7 1
    10    5    6 ar
    11    5   25 1
    12    6   26 1
    13    7   20 ar
    14    7    8 ar
    15    8   16 1
    16    8    9 ar
    17    9   10 1
    18    9   18 ar
    19   10   15 ar
    20   10   11 ar
    21   11   12 ar
    22   11   27 1
    23   12   13 ar
    24   12   28 1
    25   13   14 ar
    26   13   29 1
    27   14   15 ar
    28   14   30 1
    29   15   16 1
    30   16   17 1
    31   18   19 ar
    32   18   21 1
    33   19   20 ar
@<TRIPOS>MOLECULE
ZINC36891077
   34    36     0     0     0
SMALL
USER_CHARGES

@<TRIPOS>ATOM
      1 C1         -0.0166    1.3736    0.0096 C.ar      1 <0>        -0.1233
      2 C2          1.1711    2.0829    0.0021 C.ar      1 <0>        -0.1043
      3 C3          2.3686    1.4014   -0.0042 C.ar      1 <0>        -0.1087
      4 C4          2.3905    0.0063   -0.0101 C.ar      1 <0>        -0.0706
      5 C5          1.2055   -0.7054   -0.0172 C.ar      1 <0>        -0.1031
      6 C6          0.0021   -0.0041    0.0020 C.ar      1 <0>        -0.0930
      7 C7          1.1101   -2.2016   -0.0678 C.3       1 <0>         0.1935
      8 H1          0.9524   -2.5058   -1.1025 H         1 <0>         0.0896
      9 C8          2.3432   -2.9106    0.4638 C.3       1 <0>        -0.1297
     10 C9          3.5555   -2.5220   -0.3951 C.3       1 <0>        -0.0973
     11 S1          3.9627   -0.7961    0.0017 S.3       1 <0>        -0.1358
     12 N1         -0.0475   -2.6239    0.7246 N.pl3     1 <0>        -0.7471
     13 C10        -1.3191   -2.6469    0.1463 C.ar      1 <0>         0.1861
     14 C11        -1.4851   -2.2744   -1.1830 C.ar      1 <0>        -0.2042
     15 C12        -2.7408   -2.2952   -1.7604 C.ar      1 <0>        -0.0973
     16 C13        -3.8390   -2.6854   -1.0218 C.ar      1 <0>        -0.1336
     17 C14        -3.6838   -3.0617    0.3147 C.ar      1 <0>        -0.0890
     18 C15        -2.4143   -3.0465    0.8960 C.ar      1 <0>        -0.1500
     19 C16        -4.8563   -3.4790    1.1075 C.2       1 <0>         0.5183
     20 O1         -5.9665   -3.4959    0.5949 O.co2     1 <0>        -0.6860
     21 O2         -4.7179   -3.8080    2.2772 O.co2     1 <0>        -0.6876
     22 H2         -0.9594    1.9003    0.0259 H         1 <0>         0.1243
     23 H3          1.1598    3.1628    0.0008 H         1 <0>         0.1256
     24 H4          3.2979    1.9517   -0.0050 H         1 <0>         0.1239
     25 H5         -0.9306   -0.5485    0.0107 H         1 <0>         0.1443
     26 H6          2.5182   -2.6119    1.4974 H         1 <0>         0.0839
     27 H7          2.1929   -3.9891    0.4154 H         1 <0>         0.0923
     28 H8          4.4012   -3.1673   -0.1573 H         1 <0>         0.1157
     29 H9          3.3053   -2.6108   -1.4523 H         1 <0>         0.0935
     30 H10         0.0689   -2.8876    1.6508 H         1 <0>         0.3995
     31 H11        -0.6297   -1.9673   -1.7664 H         1 <0>         0.1101
     32 H12        -2.8628   -2.0047   -2.7934 H         1 <0>         0.1126
     33 H13        -4.8185   -2.6996   -1.4766 H         1 <0>         0.1229
     34 H14        -2.2869   -3.3405    1.9274 H         1 <0>         0.1242
@<TRIPOS>BOND
     1    1    6 ar
     2    1    2 ar
     3    1   22 1
     4    2    3 ar
     5    2   23 1
     6    3    4 ar
     7    3   24 1
     8    4   11 1
     9    4    5 ar
    10    5    6 ar
    11    5    7 1
    12    6   25 1
    13    7    8 1
    14    7    9 1
    15    7   12 1
    16    9   10 1
    17    9   26 1
    18    9   27 1
    19   10   11 1
    20   10   28 1
    21   10   29 1
    22   12   13 1
    23   12   30 1
    24   13   18 ar
    25   13   14 ar
    26   14   15 ar
    27   14   31 1
    28   15   16 ar
    29   15   32 1
    30   16   17 ar
    31   16   33 1
    32   17   18 ar
    33   17   19 1
    34   18   34 1
    35   19   20 2
    36   19   21 1
@<TRIPOS>MOLECULE
ZINC37953127
   41    42     0     0     0
SMALL
USER_CHARGES

@<TRIPOS>ATOM
      1 C1         -3.9979   -5.3370   -3.7827 C.3       1 <0>        -0.0953
      2 C2         -2.9003   -5.0469   -2.7916 C.ar      1 <0>        -0.1667
      3 C3         -1.8550   -4.2131   -3.1444 C.ar      1 <0>        -0.0852
      4 C4         -0.8475   -3.9452   -2.2386 C.ar      1 <0>        -0.2116
      5 C5         -0.8849   -4.5143   -0.9720 C.ar      1 <0>         0.2526
      6 C6         -1.9364   -5.3514   -0.6209 C.ar      1 <0>        -0.1458
      7 C7         -2.9436   -5.6107   -1.5296 C.ar      1 <0>        -0.0857
      8 N1          0.1326   -4.2458   -0.0537 N.pl3     1 <0>        -0.7151
      9 C8          0.0372   -4.7576    1.3157 C.3       1 <0>         0.1383
     10 C9          1.2450   -4.2796    2.1241 C.3       1 <0>        -0.1357
     11 C10         0.0155   -6.2642    1.2885 C.ar      1 <0>        -0.0561
     12 C11        -1.0425   -6.9506    1.8551 C.ar      1 <0>        -0.0936
     13 C12        -1.0625   -8.3324    1.8302 C.ar      1 <0>        -0.1030
     14 C13        -0.0247   -9.0282    1.2382 C.ar      1 <0>        -0.1261
     15 C14         1.0325   -8.3420    0.6710 C.ar      1 <0>        -0.1303
     16 C15         1.0504   -6.9597    0.6922 C.ar      1 <0>        -0.0811
     17 C16         2.2005   -6.2114    0.0691 C.3       1 <0>        -0.1224
     18 C17        -2.2152   -9.0806    2.4486 C.3       1 <0>        -0.1091
     19 C18        -1.2287   -4.2484    1.9553 C.2       1 <0>         0.4939
     20 O1         -2.0126   -3.5773    1.3058 O.co2     1 <0>        -0.6651
     21 O2         -1.4692   -4.5075    3.1221 O.co2     1 <0>        -0.6903
     22 H1         -4.7887   -4.5943   -3.6767 H         1 <0>         0.0549
     23 H2         -3.5942   -5.2960   -4.7943 H         1 <0>         0.0523
     24 H3         -4.4047   -6.3304   -3.5938 H         1 <0>         0.0534
     25 H4         -1.8263   -3.7712   -4.1294 H         1 <0>         0.1064
     26 H5         -0.0312   -3.2942   -2.5149 H         1 <0>         0.1065
     27 H6         -1.9684   -5.7958    0.3629 H         1 <0>         0.1297
     28 H7         -3.7637   -6.2579   -1.2559 H         1 <0>         0.1058
     29 H8          0.9024   -3.7205   -0.3226 H         1 <0>         0.3862
     30 H9          1.2050   -3.1955    2.2305 H         1 <0>         0.0547
     31 H10         1.2280   -4.7423    3.1109 H         1 <0>         0.0722
     32 H11         2.1626   -4.5603    1.6070 H         1 <0>         0.0559
     33 H12        -1.8532   -6.4071    2.3175 H         1 <0>         0.1443
     34 H13        -0.0400  -10.1079    1.2194 H         1 <0>         0.1120
     35 H14         1.8433   -8.8855    0.2089 H         1 <0>         0.1119
     36 H15         3.0110   -6.1230    0.7925 H         1 <0>         0.0612
     37 H16         2.5540   -6.7533   -0.8081 H         1 <0>         0.0547
     38 H17         1.8684   -5.2166   -0.2279 H         1 <0>         0.0818
     39 H18        -2.9906   -9.2376    1.6988 H         1 <0>         0.0644
     40 H19        -1.8662  -10.0450    2.8178 H         1 <0>         0.0590
     41 H20        -2.6226   -8.5004    3.2766 H         1 <0>         0.0662
@<TRIPOS>BOND
     1    1    2 1
     2    1   22 1
     3    1   23 1
     4    1   24 1
     5    2    7 ar
     6    2    3 ar
     7    3    4 ar
     8    3   25 1
     9    4    5 ar
    10    4   26 1
    11    5    6 ar
    12    5    8 1
    13    6    7 ar
    14    6   27 1
    15    7   28 1
    16    8    9 1
    17    8   29 1
    18    9   10 1
    19    9   11 1
    20    9   19 1
    21   10   30 1
    22   10   31 1
    23   10   32 1
    24   11   16 ar
    25   11   12 ar
    26   12   13 ar
    27   12   33 1
    28   13   14 ar
    29   13   18 1
    30   14   15 ar
    31   14   34 1
    32   15   16 ar
    33   15   35 1
    34   16   17 1
    35   17   36 1
    36   17   37 1
    37   17   38 1
    38   18   39 1
    39   18   40 1
    40   18   41 1
    41   19   20 2
    42   19   21 1
@<TRIPOS>MOLECULE
ZINC44681103
   50    52     0     0     0
SMALL
USER_CHARGES

@<TRIPOS>ATOM
      1 C1         -0.4719    1.2071   -0.2955 C.3       1 <0>        -0.1423
      2 C2         -0.3612   -0.3187   -0.2694 C.3       1 <0>        -0.0541
      3 C3          0.4507   -0.7918   -1.4768 C.3       1 <0>        -0.1433
      4 C4          0.3277   -0.7508    0.9998 C.ar      1 <0>        -0.0862
      5 C5          1.6124   -0.3190    1.2714 C.ar      1 <0>        -0.1178
      6 C6          2.2347   -0.7196    2.4375 C.ar      1 <0>        -0.1178
      7 C7          1.5801   -1.5497    3.3315 C.ar      1 <0>        -0.0483
      8 C8          0.2998   -1.9848    3.0674 C.ar      1 <0>        -0.0977
      9 C9         -0.3225   -1.5775    1.8909 C.ar      1 <0>        -0.1190
     10 C10        -0.4818   -2.8883    3.9810 C.3       1 <0>         0.1468
     11 H1         -0.6128   -3.8572    3.4940 H         1 <0>         0.0641
     12 C11         0.2166   -3.1051    5.3248 C.3       1 <0>        -0.1096
     13 C12         1.7110   -3.2814    5.0635 C.3       1 <0>        -0.0267
     14 H2          1.7821   -3.9747    4.1875 H         1 <0>         0.0519
     15 C13         2.2986   -1.9616    4.5995 C.3       1 <0>        -0.0139
     16 C14         3.7949   -2.0957    4.3358 C.3       1 <0>        -0.1011
     17 C15         4.4939   -2.6143    5.5934 C.3       1 <0>        -0.1163
     18 C16         3.9518   -3.9886    5.9634 C.3       1 <0>        -0.0852
     19 C17         2.4406   -3.9634    6.1988 C.3       1 <0>        -0.1173
     20 C18         2.1309   -3.3372    7.5582 C.3       1 <0>        -0.1232
     21 C19         1.9836   -5.4172    6.2559 C.2       1 <0>         0.4999
     22 O1          2.7445   -6.2801    6.6596 O.co2     1 <0>        -0.6967
     23 O2          0.8572   -5.7167    5.8979 O.co2     1 <0>        -0.6902
     24 C20         2.0764   -0.8386    5.6127 C.3       1 <0>        -0.1411
     25 O3         -1.7705   -2.3151    4.2174 O.3       1 <0>        -0.5596
     26 H3          0.5257    1.6445   -0.2565 H         1 <0>         0.0554
     27 H4         -0.9700    1.5196   -1.2133 H         1 <0>         0.0544
     28 H5         -1.0503    1.5442    0.5647 H         1 <0>         0.0552
     29 H6         -1.3588   -0.7561   -0.3084 H         1 <0>         0.0739
     30 H7          1.4483   -0.3544   -1.4378 H         1 <0>         0.0557
     31 H8          0.5296   -1.8788   -1.4583 H         1 <0>         0.0558
     32 H9         -0.0474   -0.4793   -2.3946 H         1 <0>         0.0545
     33 H10         2.1272    0.3279    0.5772 H         1 <0>         0.1160
     34 H11         3.2373   -0.3762    2.6437 H         1 <0>         0.1214
     35 H12        -1.3251   -1.9146    1.6737 H         1 <0>         0.1129
     36 H13         0.0122   -2.2696    5.9849 H         1 <0>         0.0613
     37 H14        -0.1945   -4.0122    5.7808 H         1 <0>         0.1125
     38 H15         3.9596   -2.7919    3.5119 H         1 <0>         0.0596
     39 H16         4.2089   -1.1209    4.0708 H         1 <0>         0.0562
     40 H17         5.5679   -2.7038    5.3840 H         1 <0>         0.0494
     41 H18         4.3702   -1.9203    6.4191 H         1 <0>         0.0601
     42 H19         4.1753   -4.6938    5.1576 H         1 <0>         0.0520
     43 H20         4.4483   -4.3393    6.8729 H         1 <0>         0.0604
     44 H21         1.0512   -3.2963    7.7019 H         1 <0>         0.0498
     45 H22         2.5798   -3.9408    8.3470 H         1 <0>         0.0473
     46 H23         2.5408   -2.3279    7.5951 H         1 <0>         0.0449
     47 H24         1.0192   -0.7880    5.8730 H         1 <0>         0.0589
     48 H25         2.6624   -1.0377    6.5100 H         1 <0>         0.0662
     49 H26         2.3894    0.1105    5.1776 H         1 <0>         0.0462
     50 H27        -2.2977   -2.1889    3.4166 H         1 <0>         0.3647
@<TRIPOS>BOND
     1    1    2 1
     2    1   26 1
     3    1   27 1
     4    1   28 1
     5    2    3 1
     6    2    4 1
     7    2   29 1
     8    3   30 1
     9    3   31 1
    10    3   32 1
    11    4    9 ar
    12    4    5 ar
    13    5    6 ar
    14    5   33 1
    15    6    7 ar
    16    6   34 1
    17    7   15 1
    18    7    8 ar
    19    8    9 ar
    20    8   10 1
    21    9   35 1
    22   10   11 1
    23   10   12 1
    24   10   25 1
    25   12   13 1
    26   12   36 1
    27   12   37 1
    28   13   14 1
    29   13   19 1
    30   13   15 1
    31   15   16 1
    32   15   24 1
    33   16   17 1
    34   16   38 1
    35   16   39 1
    36   17   18 1
    37   17   40 1
    38   17   41 1
    39   18   19 1
    40   18   42 1
    41   18   43 1
    42   19   20 1
    43   19   21 1
    44   20   44 1
    45   20   45 1
    46   20   46 1
    47   21   22 2
    48   21   23 1
    49   24   47 1
    50   24   48 1
    51   24   49 1
    52   25   50 1
@<TRIPOS>MOLECULE
ZINC61848009
   32    33     0     0     0
SMALL
USER_CHARGES

@<TRIPOS>ATOM
      1 C1         -0.0184    1.5028    0.0103 C.3       1 <0>        -0.0695
      2 C2          0.0021   -0.0041    0.0020 C.2       1 <0>        -0.1459
      3 C3         -1.0392   -0.8719    0.0017 C.2       1 <0>        -0.1607
      4 C4         -0.7802   -2.2296   -0.0075 C.2       1 <0>        -0.1469
      5 C5          0.5074   -2.6532   -0.0160 C.2       1 <0>        -0.1464
      6 S1          1.4039   -1.1093   -0.0179 S.3       1 <0>         0.0402
      7 C6          1.0430   -4.0617   -0.0269 C.3       1 <0>         0.2365
      8 H1          0.2712   -4.7467    0.3242 H         1 <0>         0.1009
      9 C7          1.4518   -4.4409   -1.4516 C.3       1 <0>        -0.1658
     10 N1          2.2097   -4.1473    0.8550 N.pl3     1 <0>        -0.7429
     11 C8          2.5633   -5.3647    1.4230 C.ar      1 <0>         0.2161
     12 C9          1.8103   -6.5044    1.1479 C.ar      1 <0>        -0.2108
     13 C10         2.1513   -7.7040    1.7021 C.ar      1 <0>        -0.0286
     14 C11         3.2616   -7.7942    2.5504 C.ar      1 <0>        -0.1806
     15 C12         4.0208   -6.6498    2.8282 C.ar      1 <0>         0.0427
     16 C13         3.6722   -5.4438    2.2607 C.ar      1 <0>        -0.2074
     17 Cl1         5.3990   -6.7524    3.8788 Cl        1 <0>        -0.0480
     18 C14         3.6296   -9.0862    3.1484 C.2       1 <0>         0.5194
     19 O1          2.9652  -10.0845    2.9049 O.co2     1 <0>        -0.6968
     20 O2          4.6002   -9.1631    3.8894 O.co2     1 <0>        -0.6681
     21 H2          1.0042    1.8801    0.0026 H         1 <0>         0.0717
     22 H3         -0.5455    1.8639   -0.8728 H         1 <0>         0.0794
     23 H4         -0.5286    1.8543    0.9071 H         1 <0>         0.0798
     24 H5         -2.0560   -0.5079    0.0090 H         1 <0>         0.1322
     25 H6         -1.5916   -2.9424   -0.0076 H         1 <0>         0.1342
     26 H7          1.8393   -5.4597   -1.4595 H         1 <0>         0.0734
     27 H8          0.5838   -4.3773   -2.1078 H         1 <0>         0.0655
     28 H9          2.2236   -3.7560   -1.8027 H         1 <0>         0.0598
     29 H10         2.7353   -3.3538    1.0424 H         1 <0>         0.3957
     30 H11         0.9533   -6.4380    0.4940 H         1 <0>         0.1177
     31 H12         1.5641   -8.5844    1.4865 H         1 <0>         0.1323
     32 H13         4.2565   -4.5596    2.4688 H         1 <0>         0.1207
@<TRIPOS>BOND
     1    1    2 1
     2    1   21 1
     3    1   22 1
     4    1   23 1
     5    2    6 1
     6    2    3 2
     7    3    4 1
     8    3   24 1
     9    4    5 2
    10    4   25 1
    11    5    6 1
    12    5    7 1
    13    7    8 1
    14    7    9 1
    15    7   10 1
    16    9   26 1
    17    9   27 1
    18    9   28 1
    19   10   11 1
    20   10   29 1
    21   11   16 ar
    22   11   12 ar
    23   12   13 ar
    24   12   30 1
    25   13   14 ar
    26   13   31 1
    27   14   15 ar
    28   14   18 1
    29   15   16 ar
    30   15   17 1
    31   16   32 1
    32   18   19 2
    33   18   20 1
@<TRIPOS>MOLECULE
ZINC28511815
   30    31     0     0     0
SMALL
USER_CHARGES
(2S)-3-phenyl-2-(2-thienylsulfonyl)propanoic acid
@<TRIPOS>ATOM
      1 C1         -1.2190    1.7506    0.0173 C.ar      1 <0>        -0.1239
      2 C2         -0.0126    1.0758    0.0080 C.ar      1 <0>        -0.1067
      3 C3          1.1750    1.7832    0.0004 C.ar      1 <0>        -0.1032
      4 C4          1.1563    3.1654    0.0076 C.ar      1 <0>        -0.1029
      5 C5         -0.0501    3.8402    0.0223 C.ar      1 <0>        -0.1077
      6 C6         -1.2377    3.1328    0.0299 C.ar      1 <0>        -0.1235
      7 C7          2.4510    3.9366   -0.0011 C.3       1 <0>        -0.0527
      8 C8          2.8751    4.2049   -1.4465 C.3       1 <0>        -0.6130
      9 H1          2.0869    4.8528   -1.8577 H         1 <0>         0.1466
     10 C9          4.1020    5.0799   -1.4558 C.2       1 <0>         0.4778
     11 O1          4.1326    6.0701   -2.1475 O.co2     1 <0>        -0.6127
     12 O2          5.1609    4.7591   -0.6958 O.co2     1 <0>        -0.7263
     13 S1          3.2480    2.6318   -2.2692 S.o2      1 <0>         2.5501
     14 O3          4.3439    1.9925   -1.6292 O.2       1 <0>        -0.9172
     15 O4          2.0465    1.9198   -2.5315 O.2       1 <0>        -0.9388
     16 C10         3.8580    3.0855   -3.8587 C.2       1 <0>        -0.7213
     17 C11         5.1331    3.3363   -4.2440 C.2       1 <0>        -0.0045
     18 C12         5.3806    3.6790   -5.5600 C.2       1 <0>        -0.1804
     19 C13         4.3409    3.7541   -6.4264 C.2       1 <0>        -0.1496
     20 S2          2.9579    3.3265   -5.3815 S.3       1 <0>         0.1376
     21 H2         -2.1469    1.1980    0.0188 H         1 <0>         0.1183
     22 H3          0.0021   -0.0041    0.0020 H         1 <0>         0.1212
     23 H4          2.1175    1.2560   -0.0115 H         1 <0>         0.1167
     24 H5         -0.0647    4.9201    0.0276 H         1 <0>         0.1226
     25 H6         -2.1802    3.6600    0.0410 H         1 <0>         0.1193
     26 H7          2.3115    4.8932    0.5237 H         1 <0>         0.0949
     27 H8          3.2306    3.3500    0.5069 H         1 <0>         0.0952
     28 H9          5.9435    3.2697   -3.5333 H         1 <0>         0.1504
     29 H10         6.3874    3.8835   -5.8931 H         1 <0>         0.1417
     30 H11         4.3478    4.0039   -7.4771 H         1 <0>         0.1920
@<TRIPOS>BOND
     1    1    6 ar
     2    1    2 ar
     3    1   21 1
     4    2    3 ar
     5    2   22 1
     6    3    4 ar
     7    3   23 1
     8    4    5 ar
     9    4    7 1
    10    5    6 ar
    11    5   24 1
    12    6   25 1
    13    7    8 1
    14    7   26 1
    15    7   27 1
    16    8    9 1
    17    8   10 1
    18    8   13 1
    19   10   11 2
    20   10   12 1
    21   13   14 2
    22   13   15 2
    23   13   16 1
    24   16   20 1
    25   16   17 2
    26   17   18 1
    27   17   28 1
    28   18   19 2
    29   18   29 1
    30   19   20 1
    31   19   30 1
@<TRIPOS>MOLECULE
ZINC41678535
   27    28     0     0     0
SMALL
USER_CHARGES

@<TRIPOS>ATOM
      1 C1         -3.5526   -0.2216   -0.6061 C.2       1 <0>        -0.1736
      2 C2         -4.7292    0.3424   -0.1487 C.2       1 <0>        -0.1011
      3 C3         -4.8174    0.7143    1.1523 C.2       1 <0>        -0.1856
      4 S1         -3.2052    0.2664    1.7746 S.3       1 <0>         0.1122
      5 C4         -2.5225   -0.3860    0.2596 C.2       1 <0>        -0.0622
      6 C5         -1.1556   -0.9688    0.0083 C.3       1 <0>         0.0889
      7 H1         -1.1526   -1.4879   -0.9501 H         1 <0>         0.0592
      8 C6         -0.1341    0.1389   -0.0171 C.2       1 <0>         0.5089
      9 O1          0.5788    0.3330    0.9527 O.co2     1 <0>        -0.6595
     10 O2         -0.0207    0.8409   -1.0074 O.co2     1 <0>        -0.6858
     11 N1         -0.8231   -1.9171    1.0799 N.3       1 <0>        -0.5023
     12 C7          0.4615   -2.5813    0.8157 C.3       1 <0>         0.0244
     13 C8          0.7973   -3.5136    1.9827 C.3       1 <0>         0.0684
     14 O3         -0.2695   -4.4494    2.1609 O.3       1 <0>        -0.3929
     15 C9         -1.5353   -3.8367    2.4207 C.3       1 <0>         0.0690
     16 C10        -1.8948   -2.9076    1.2581 C.3       1 <0>         0.0078
     17 Br1        -6.1928    0.5920   -1.3197 Br        1 <0>        -0.0578
     18 H2         -3.4572   -0.5307   -1.6365 H         1 <0>         0.1369
     19 H3         -5.6476    1.1646    1.6761 H         1 <0>         0.1886
     20 H4          0.3889   -3.1613   -0.1043 H         1 <0>         0.0303
     21 H5          1.2450   -1.8306    0.7125 H         1 <0>         0.1051
     22 H6          1.7203   -4.0511    1.7652 H         1 <0>         0.0938
     23 H7          0.9227   -2.9270    2.8927 H         1 <0>         0.0617
     24 H8         -2.2994   -4.6077    2.5200 H         1 <0>         0.0910
     25 H9         -1.4778   -3.2594    3.3435 H         1 <0>         0.0585
     26 H10        -2.8313   -2.3950    1.4780 H         1 <0>         0.0814
     27 H11        -2.0050   -3.4928    0.3452 H         1 <0>         0.0344
@<TRIPOS>BOND
     1    1    5 2
     2    1    2 1
     3    1   18 1
     4    2    3 2
     5    2   17 1
     6    3    4 1
     7    3   19 1
     8    4    5 1
     9    5    6 1
    10    6    7 1
    11    6    8 1
    12    6   11 1
    13    8    9 2
    14    8   10 1
    15   11   16 1
    16   11   12 1
    17   12   13 1
    18   12   20 1
    19   12   21 1
    20   13   14 1
    21   13   22 1
    22   13   23 1
    23   14   15 1
    24   15   16 1
    25   15   24 1
    26   15   25 1
    27   16   26 1
    28   16   27 1
@<TRIPOS>MOLECULE
ZINC49509817
   34    35     0     0     0
SMALL
USER_CHARGES

@<TRIPOS>ATOM
      1 C1         -0.0184    1.5028    0.0103 C.3       1 <0>        -0.0668
      2 C2          0.0021   -0.0041    0.0020 C.2       1 <0>        -0.1508
      3 C3         -1.0392   -0.8719    0.0017 C.2       1 <0>        -0.1417
      4 C4         -0.7802   -2.2296   -0.0075 C.2       1 <0>        -0.1437
      5 C5          0.5074   -2.6532   -0.0160 C.2       1 <0>        -0.1127
      6 S1          1.4039   -1.1093   -0.0179 S.3       1 <0>         0.0341
      7 C6          1.0430   -4.0617   -0.0269 C.3       1 <0>        -0.0811
      8 C7         -1.9124   -3.2242   -0.0076 C.3       1 <0>         0.1889
      9 H1         -1.5072   -4.2360   -0.0152 H         1 <0>         0.1136
     10 C8         -2.7656   -3.0258    1.2468 C.3       1 <0>        -0.1544
     11 N1         -2.7408   -3.0210   -1.1988 N.pl3     1 <0>        -0.4375
     12 C9         -3.4142   -1.8700   -1.5415 C.2       1 <0>        -0.0609
     13 C10        -4.0448   -2.1157   -2.7024 C.2       1 <0>        -0.0230
     14 N2         -3.7736   -3.3787   -3.0719 N.2       1 <0>        -0.5000
     15 C11        -2.9859   -3.9323   -2.1796 C.2       1 <0>         0.1953
     16 S2         -2.3567   -5.5771   -2.2390 S.3       1 <0>         0.0070
     17 C12        -3.0441   -6.2547   -3.7749 C.3       1 <0>        -0.1517
     18 C13        -2.5774   -7.6769   -3.9497 C.2       1 <0>         0.5139
     19 O1         -1.8485   -8.1861   -3.1154 O.co2     1 <0>        -0.6765
     20 O2         -2.9286   -8.3182   -4.9253 O.co2     1 <0>        -0.6794
     21 H2          1.0042    1.8801    0.0026 H         1 <0>         0.0707
     22 H3         -0.5455    1.8639   -0.8728 H         1 <0>         0.0789
     23 H4         -0.5286    1.8543    0.9071 H         1 <0>         0.0784
     24 H5         -2.0560   -0.5079    0.0090 H         1 <0>         0.1315
     25 H6          1.1674   -4.3952   -1.0571 H         1 <0>         0.0905
     26 H7          2.0064   -4.0880    0.4823 H         1 <0>         0.0770
     27 H8          0.3427   -4.7207    0.4863 H         1 <0>         0.0861
     28 H9         -3.1708   -2.0139    1.2543 H         1 <0>         0.0628
     29 H10        -3.5846   -3.7451    1.2467 H         1 <0>         0.0697
     30 H11        -2.1493   -3.1769    2.1330 H         1 <0>         0.0768
     31 H12        -3.4324   -0.9456   -0.9832 H         1 <0>         0.1663
     32 H13        -4.6643   -1.4174   -3.2455 H         1 <0>         0.1642
     33 H14        -4.1328   -6.2330   -3.7263 H         1 <0>         0.0875
     34 H15        -2.7061   -5.6549   -4.6199 H         1 <0>         0.0871
@<TRIPOS>BOND
     1    1    2 1
     2    1   21 1
     3    1   22 1
     4    1   23 1
     5    2    6 1
     6    2    3 2
     7    3    4 1
     8    3   24 1
     9    4    5 2
    10    4    8 1
    11    5    6 1
    12    5    7 1
    13    7   25 1
    14    7   26 1
    15    7   27 1
    16    8    9 1
    17    8   10 1
    18    8   11 1
    19   10   28 1
    20   10   29 1
    21   10   30 1
    22   11   15 1
    23   11   12 1
    24   12   13 2
    25   12   31 1
    26   13   14 1
    27   13   32 1
    28   14   15 2
    29   15   16 1
    30   16   17 1
    31   17   18 1
    32   17   33 1
    33   17   34 1
    34   18   19 2
    35   18   20 1
@<TRIPOS>MOLECULE
ZINC37590657
   43    44     0     0     0
SMALL
USER_CHARGES

@<TRIPOS>ATOM
      1 C1         -3.5860   -2.5516   -2.1663 C.3       1 <0>        -0.1452
      2 C2         -2.1109   -2.2744   -2.4628 C.3       1 <0>        -0.1360
      3 C3         -1.8804   -0.7636   -2.5352 C.3       1 <0>         0.1278
      4 H1         -2.5603   -0.3270   -3.2668 H         1 <0>         0.0912
      5 C4         -0.4349   -0.4877   -2.9540 C.3       1 <0>        -0.1543
      6 N1         -2.1300   -0.1679   -1.2203 N.am      1 <0>        -0.5639
      7 C5         -1.3390   -0.5915   -0.0622 C.3       1 <0>         0.0496
      8 C6         -0.1916    0.3645    0.1392 C.2       1 <0>         0.4873
      9 O1         -0.0479    1.3118   -0.6148 O.co2     1 <0>        -0.6807
     10 O2          0.5930    0.1906    1.0561 O.co2     1 <0>        -0.7065
     11 C7         -3.0873    0.7697   -1.0760 C.2       1 <0>         0.5735
     12 O3         -3.2397    1.3234   -0.0037 O.2       1 <0>        -0.5378
     13 C8         -3.9485    1.1238   -2.2159 C.2       1 <0>        -0.1502
     14 C9         -3.4131    1.5486   -3.4099 C.2       1 <0>        -0.2118
     15 S1         -4.7513    1.8281   -4.3853 S.3       1 <0>         0.1564
     16 C10        -6.0410    1.3967   -3.2543 C.2       1 <0>        -0.1952
     17 C11        -5.3929    1.0321   -2.1245 C.2       1 <0>        -0.0701
     18 C12        -6.1547    0.5763   -0.8890 C.3       1 <0>        -0.0561
     19 C13        -7.5736    0.1821   -1.3058 C.3       1 <0>        -0.1120
     20 C14        -8.2148    1.3155   -2.1114 C.3       1 <0>        -0.0885
     21 H2         -8.0943    2.2574   -1.5762 H         1 <0>         0.0754
     22 C15        -7.5213    1.4177   -3.4755 C.3       1 <0>        -0.0261
     23 C16        -9.7040    1.0251   -2.3086 C.3       1 <0>        -0.1448
     24 H3         -3.7502   -3.6280   -2.1146 H         1 <0>         0.0497
     25 H4         -3.8569   -2.0967   -1.2135 H         1 <0>         0.0539
     26 H5         -4.2020   -2.1278   -2.9594 H         1 <0>         0.0498
     27 H6         -1.4950   -2.6983   -1.6696 H         1 <0>         0.0671
     28 H7         -1.8400   -2.7294   -3.4155 H         1 <0>         0.0688
     29 H8         -0.2492   -0.9309   -3.9324 H         1 <0>         0.0504
     30 H9         -0.2707    0.5886   -3.0056 H         1 <0>         0.0712
     31 H10         0.2449   -0.9243   -2.2224 H         1 <0>         0.0598
     32 H11        -1.9696   -0.5947    0.8269 H         1 <0>         0.0725
     33 H12        -0.9499   -1.5948   -0.2353 H         1 <0>         0.0720
     34 H13        -2.3704    1.6737   -3.6622 H         1 <0>         0.1897
     35 H14        -5.6518   -0.2830   -0.4455 H         1 <0>         0.0739
     36 H15        -6.1990    1.3905   -0.1657 H         1 <0>         0.0820
     37 H16        -7.5339   -0.7192   -1.9174 H         1 <0>         0.0641
     38 H17        -8.1715   -0.0123   -0.4154 H         1 <0>         0.0682
     39 H18        -7.8054    2.3450   -3.9731 H         1 <0>         0.0786
     40 H19        -7.8132    0.5660   -4.0899 H         1 <0>         0.0787
     41 H20       -10.1915    0.9505   -1.3365 H         1 <0>         0.0570
     42 H21       -10.1589    1.8327   -2.8821 H         1 <0>         0.0553
     43 H22        -9.8226    0.0851   -2.8476 H         1 <0>         0.0553
@<TRIPOS>BOND
     1    1    2 1
     2    1   24 1
     3    1   25 1
     4    1   26 1
     5    2    3 1
     6    2   27 1
     7    2   28 1
     8    3    4 1
     9    3    5 1
    10    3    6 1
    11    5   29 1
    12    5   30 1
    13    5   31 1
    14    6    7 1
    15    6   11 am
    16    7    8 1
    17    7   32 1
    18    7   33 1
    19    8    9 2
    20    8   10 1
    21   11   12 2
    22   11   13 1
    23   13   17 1
    24   13   14 2
    25   14   15 1
    26   14   34 1
    27   15   16 1
    28   16   22 1
    29   16   17 2
    30   17   18 1
    31   18   19 1
    32   18   35 1
    33   18   36 1
    34   19   20 1
    35   19   37 1
    36   19   38 1
    37   20   21 1
    38   20   22 1
    39   20   23 1
    40   22   39 1
    41   22   40 1
    42   23   41 1
    43   23   42 1
    44   23   43 1
@<TRIPOS>MOLECULE
ZINC62118983
   32    33     0     0     0
SMALL
USER_CHARGES

@<TRIPOS>ATOM
      1 C1         -0.0168    1.3849    0.0097 C.ar      1 <0>        -0.0823
      2 C2          1.1703    2.0917    0.0021 C.ar      1 <0>        -0.1024
      3 C3          2.3788    1.4176   -0.0135 C.ar      1 <0>         0.0540
      4 C4          2.4015    0.0306   -0.0212 C.ar      1 <0>         0.0925
      5 C5          1.2157   -0.6804   -0.0132 C.ar      1 <0>        -0.1492
      6 C6          0.0021   -0.0041    0.0020 C.ar      1 <0>        -0.0821
      7 S1         -1.5110   -0.9069    0.0122 S.3       1 <0>        -0.0007
      8 C7         -0.9861   -2.6433   -0.0023 C.3       1 <0>        -0.1524
      9 C8         -2.2006   -3.5353    0.0049 C.2       1 <0>         0.5427
     10 O1         -3.3111   -3.0478    0.0186 O.2       1 <0>        -0.5285
     11 N1         -2.0529   -4.8749   -0.0037 N.am      1 <0>        -0.6061
     12 C9         -0.7715   -5.5956   -0.0139 C.3       1 <0>         0.0972
     13 C10        -1.0943   -7.1046    0.0068 C.3       1 <0>        -0.1139
     14 C11        -2.5280   -7.1452    0.5985 C.3       1 <0>        -0.1669
     15 H1         -2.5030   -7.0940    1.6870 H         1 <0>         0.0746
     16 C12        -3.1494   -5.8603    0.0019 C.3       1 <0>         0.1282
     17 C13        -3.2690   -8.3729    0.1353 C.2       1 <0>         0.5042
     18 O2         -3.9850   -8.9820    0.9117 O.co2     1 <0>        -0.6929
     19 O3         -3.1526   -8.7571   -1.0160 O.co2     1 <0>        -0.6895
     20 F1          3.5823   -0.6255   -0.0369 F         1 <0>        -0.1256
     21 F2          3.5381    2.1112   -0.0217 F         1 <0>        -0.1289
     22 H2         -0.9592    1.9122    0.0260 H         1 <0>         0.1478
     23 H3          1.1551    3.1716    0.0081 H         1 <0>         0.1517
     24 H4          1.2327   -1.7603   -0.0195 H         1 <0>         0.1452
     25 H5         -0.3979   -2.8375   -0.8993 H         1 <0>         0.1188
     26 H6         -0.3803   -2.8471    0.8806 H         1 <0>         0.1185
     27 H7         -0.2141   -5.3481   -0.9173 H         1 <0>         0.0667
     28 H8         -0.1892   -5.3290    0.8681 H         1 <0>         0.0644
     29 H9         -1.0820   -7.5155   -1.0027 H         1 <0>         0.0901
     30 H10        -0.3961   -7.6395    0.6506 H         1 <0>         0.0741
     31 H11        -3.9709   -5.5102    0.6269 H         1 <0>         0.0750
     32 H12        -3.4974   -6.0465   -1.0142 H         1 <0>         0.0758
@<TRIPOS>BOND
     1    1    6 ar
     2    1    2 ar
     3    1   22 1
     4    2    3 ar
     5    2   23 1
     6    3    4 ar
     7    3   21 1
     8    4    5 ar
     9    4   20 1
    10    5    6 ar
    11    5   24 1
    12    6    7 1
    13    7    8 1
    14    8    9 1
    15    8   25 1
    16    8   26 1
    17    9   10 2
    18    9   11 am
    19   11   16 1
    20   11   12 1
    21   12   13 1
    22   12   27 1
    23   12   28 1
    24   13   14 1
    25   13   29 1
    26   13   30 1
    27   14   15 1
    28   14   16 1
    29   14   17 1
    30   16   31 1
    31   16   32 1
    32   17   18 2
    33   17   19 1
@<TRIPOS>MOLECULE
ZINC20376341
   40    42     0     0     0
SMALL
USER_CHARGES
4-[[(4bR,7S,8aR)-7-methyl-4b,5,6,7,8,8a-hexahydrobenzothiopheno[3,2-e]pyrimidin-4-yl]sulfanyl]butanoic acid
@<TRIPOS>ATOM
      1 C1         10.1396    8.5526   -2.8971 C.3       1 <0>        -0.1486
      2 C2          8.8174    8.4754   -2.1312 C.3       1 <0>        -0.0930
      3 H1          8.0458    8.9749   -2.7354 H         1 <0>         0.0771
      4 C3          8.4496    7.0078   -1.8631 C.3       1 <0>        -0.1105
      5 C4          7.0213    6.9810   -1.3379 C.3       1 <0>        -0.1095
      6 C5          6.8335    7.8104   -0.0820 C.3       1 <0>        -0.0389
      7 H2          7.1138    7.1748    0.7709 H         1 <0>         0.0925
      8 C6          5.3780    8.2159   -0.0052 C.ar      1 <0>        -0.1932
      9 C7          5.1033    9.5769    0.0332 C.ar      1 <0>         0.1838
     10 N1          3.8559   10.0239    0.0320 N.ar      1 <0>        -0.5071
     11 C8          2.8403    9.1810    0.0226 C.ar      1 <0>         0.3305
     12 N2          3.0386    7.8789    0.0098 N.ar      1 <0>        -0.5292
     13 C9          4.2617    7.3615    0.0009 C.ar      1 <0>         0.1886
     14 S1          4.4840    5.6136   -0.0106 S.3       1 <0>        -0.0344
     15 C10         2.7554    5.0768    0.0030 C.3       1 <0>        -0.1021
     16 C11         2.6961    3.5480   -0.0046 C.3       1 <0>        -0.0882
     17 C12         1.2350    3.0943    0.0069 C.3       1 <0>        -0.1509
     18 C13         1.1765    1.5884   -0.0006 C.2       1 <0>         0.4598
     19 O1          2.1986    0.9442   -0.0139 O.co2     1 <0>        -0.6406
     20 O2         -0.0110    0.9628    0.0073 O.co2     1 <0>        -0.7743
     21 S2          6.6680   10.4144    0.1096 S.3       1 <0>        -0.0290
     22 C14         7.7787    8.9655    0.1158 C.3       1 <0>        -0.0815
     23 H3          8.4275    8.6066    0.9283 H         1 <0>         0.1185
     24 C15         8.9624    9.1542   -0.7725 C.3       1 <0>        -0.1012
     25 H4         10.0263    8.0612   -3.8747 H         1 <0>         0.0576
     26 H5         10.9273    8.0452   -2.3208 H         1 <0>         0.0547
     27 H6         10.4158    9.6068   -3.0464 H         1 <0>         0.0550
     28 H7          8.5254    6.4341   -2.7986 H         1 <0>         0.0732
     29 H8          9.1405    6.5869   -1.1178 H         1 <0>         0.0684
     30 H9          6.3410    7.3794   -2.1051 H         1 <0>         0.0642
     31 H10         6.7379    5.9454   -1.0987 H         1 <0>         0.0840
     32 H11         1.8309    9.5649    0.0212 H         1 <0>         0.2082
     33 H12         2.2601    5.4585    0.9080 H         1 <0>         0.0930
     34 H13         2.2429    5.4681   -0.8882 H         1 <0>         0.0938
     35 H14         3.1915    3.1664   -0.9096 H         1 <0>         0.0715
     36 H15         3.2086    3.1567    0.8866 H         1 <0>         0.0712
     37 H16         0.7397    3.4760    0.9119 H         1 <0>         0.0668
     38 H17         0.7225    3.4856   -0.8843 H         1 <0>         0.0669
     39 H18         9.8370    8.7418   -0.2481 H         1 <0>         0.0768
     40 H19         9.0976   10.2364   -0.9158 H         1 <0>         0.0762
@<TRIPOS>BOND
     1    1    2 1
     2    1   25 1
     3    1   26 1
     4    1   27 1
     5    2    3 1
     6    2   24 1
     7    2    4 1
     8    4    5 1
     9    4   28 1
    10    4   29 1
    11    5    6 1
    12    5   30 1
    13    5   31 1
    14    6    7 1
    15    6   22 1
    16    6    8 1
    17    8   13 ar
    18    8    9 ar
    19    9   10 ar
    20    9   21 1
    21   10   11 ar
    22   11   12 ar
    23   11   32 1
    24   12   13 ar
    25   13   14 1
    26   14   15 1
    27   15   16 1
    28   15   33 1
    29   15   34 1
    30   16   17 1
    31   16   35 1
    32   16   36 1
    33   17   18 1
    34   17   37 1
    35   17   38 1
    36   18   19 2
    37   18   20 1
    38   21   22 1
    39   22   23 1
    40   22   24 1
    41   24   39 1
    42   24   40 1
@<TRIPOS>MOLECULE
ZINC37835321
   41    42     0     0     0
SMALL
USER_CHARGES

@<TRIPOS>ATOM
      1 C1         11.1219   -1.6109    4.8416 C.3       1 <0>        -0.0659
      2 C2          9.9955   -2.1618    4.0056 C.2       1 <0>        -0.1654
      3 C3          9.6224   -1.8241    2.7470 C.2       1 <0>        -0.1586
      4 C4          8.5450   -2.4706    2.1710 C.2       1 <0>        -0.1557
      5 C5          7.8934   -3.4232    2.8818 C.2       1 <0>        -0.1369
      6 S1          8.8112   -3.4340    4.4130 S.3       1 <0>         0.0499
      7 C6          6.7058   -4.2601    2.4812 C.3       1 <0>         0.2193
      8 H1          6.1840   -3.7781    1.6545 H         1 <0>         0.1191
      9 C7          7.1830   -5.6465    2.0442 C.3       1 <0>        -0.1565
     10 N1          5.7958   -4.3939    3.6215 N.am      1 <0>        -0.6090
     11 C8          6.2637   -5.0148    4.8631 C.3       1 <0>         0.0733
     12 C9          4.5282   -3.9457    3.5282 C.2       1 <0>         0.5402
     13 O1          4.1103   -3.5240    2.4706 O.2       1 <0>        -0.5381
     14 C10         3.6299   -3.9685    4.7380 C.3       1 <0>        -0.0828
     15 H2          4.1850   -4.3397    5.5995 H         1 <0>         0.0900
     16 C11         3.1184   -2.5553    5.0257 C.3       1 <0>        -0.0748
     17 C12         2.0250   -2.6004    6.0525 C.2       1 <0>        -0.1648
     18 C13         1.3727   -3.6722    6.3708 C.2       1 <0>        -0.1429
     19 C14         1.6255   -5.0215    5.7646 C.3       1 <0>        -0.0750
     20 C15         2.4257   -4.8798    4.4690 C.3       1 <0>        -0.1403
     21 H3          1.7942   -4.4350    3.6999 H         1 <0>         0.0686
     22 C16         2.9065   -6.2339    4.0150 C.2       1 <0>         0.4983
     23 O2          3.5117   -6.9567    4.7883 O.co2     1 <0>        -0.6955
     24 O3          2.6903   -6.6068    2.8745 O.co2     1 <0>        -0.6899
     25 H4         11.1382   -2.1160    5.8074 H         1 <0>         0.0699
     26 H5         12.0695   -1.7764    4.3289 H         1 <0>         0.0760
     27 H6         10.9727   -0.5419    4.9932 H         1 <0>         0.0759
     28 H7         10.1588   -1.0610    2.2025 H         1 <0>         0.1271
     29 H8          8.2269   -2.2203    1.1697 H         1 <0>         0.1314
     30 H9          7.7049   -6.1285    2.8709 H         1 <0>         0.0599
     31 H10         6.3241   -6.2518    1.7544 H         1 <0>         0.0772
     32 H11         7.8601   -5.5470    1.1958 H         1 <0>         0.0660
     33 H12         6.1672   -4.3039    5.6837 H         1 <0>         0.0581
     34 H13         5.6630   -5.8991    5.0760 H         1 <0>         0.0943
     35 H14         7.3090   -5.3035    4.7536 H         1 <0>         0.0665
     36 H15         3.9394   -1.9429    5.3987 H         1 <0>         0.0649
     37 H16         2.7322   -2.1166    4.1056 H         1 <0>         0.0797
     38 H17         1.7660   -1.6813    6.5571 H         1 <0>         0.0994
     39 H18         0.5980   -3.5902    7.1188 H         1 <0>         0.0980
     40 H19         2.1898   -5.6336    6.4682 H         1 <0>         0.0832
     41 H20         0.6727   -5.5058    5.5508 H         1 <0>         0.0658
@<TRIPOS>BOND
     1    1    2 1
     2    1   25 1
     3    1   26 1
     4    1   27 1
     5    2    6 1
     6    2    3 2
     7    3    4 1
     8    3   28 1
     9    4    5 2
    10    4   29 1
    11    5    6 1
    12    5    7 1
    13    7    8 1
    14    7    9 1
    15    7   10 1
    16    9   30 1
    17    9   31 1
    18    9   32 1
    19   10   11 1
    20   10   12 am
    21   11   33 1
    22   11   34 1
    23   11   35 1
    24   12   13 2
    25   12   14 1
    26   14   15 1
    27   14   20 1
    28   14   16 1
    29   16   17 1
    30   16   36 1
    31   16   37 1
    32   17   18 2
    33   17   38 1
    34   18   19 1
    35   18   39 1
    36   19   20 1
    37   19   40 1
    38   19   41 1
    39   20   21 1
    40   20   22 1
    41   22   23 2
    42   22   24 1
@<TRIPOS>MOLECULE
ZINC49417833
   31    31     0     0     0
SMALL
USER_CHARGES

@<TRIPOS>ATOM
      1 C1         -0.0187    1.5258    0.0104 C.3       1 <0>        -0.1392
      2 C2          0.0021   -0.0041    0.0020 C.3       1 <0>        -0.5800
      3 C3          0.7421   -0.5109    1.2415 C.3       1 <0>        -0.1271
      4 S1         -1.6997   -0.6320    0.0149 S.o2      1 <0>         2.5773
      5 O1         -2.3591   -0.2345    1.2093 O.2       1 <0>        -0.9982
      6 O2         -2.3081   -0.4232   -1.2522 O.2       1 <0>        -1.0033
      7 N1         -1.5459   -2.2757    0.1441 N.2       1 <0>        -1.0566
      8 C4         -2.5984   -3.0214    0.1794 C.2       1 <0>         0.5061
      9 O3         -3.8242   -2.4619    0.1112 O.3       1 <0>        -0.7090
     10 C5         -2.4585   -4.5173    0.2970 C.3       1 <0>        -0.0911
     11 S2         -0.6998   -4.9564    0.3671 S.3       1 <0>         0.0118
     12 C6         -0.7041   -6.7132    0.5017 C.ar      1 <0>        -0.0992
     13 C7         -1.9077   -7.4071    0.5241 C.ar      1 <0>        -0.1329
     14 C8         -1.9075   -8.7840    0.6292 C.ar      1 <0>        -0.0946
     15 C9         -0.7111   -9.4731    0.7126 C.ar      1 <0>        -0.1321
     16 C10         0.4892   -8.7866    0.6911 C.ar      1 <0>        -0.0931
     17 C11         0.4971   -7.4092    0.5799 C.ar      1 <0>        -0.0290
     18 Cl1         2.0043   -6.5486    0.5452 Cl        1 <0>        -0.0599
     19 H1          1.0039    1.9031    0.0027 H         1 <0>         0.0701
     20 H2         -0.5459    1.8868   -0.8726 H         1 <0>         0.0626
     21 H3         -0.5289    1.8773    0.9072 H         1 <0>         0.0669
     22 H4          0.5123   -0.3556   -0.8948 H         1 <0>         0.1248
     23 H5          0.7568   -1.6008    1.2356 H         1 <0>         0.0832
     24 H6          1.7647   -0.1336    1.2338 H         1 <0>         0.0583
     25 H7          0.2319   -0.1594    2.1383 H         1 <0>         0.0625
     26 H8         -2.9546   -4.8584    1.2057 H         1 <0>         0.1027
     27 H9         -2.9178   -4.9944   -0.5687 H         1 <0>         0.1025
     28 H10        -2.8425   -6.8700    0.4598 H         1 <0>         0.1317
     29 H11        -2.8428   -9.3236    0.6467 H         1 <0>         0.1262
     30 H12        -0.7144  -10.5499    0.7951 H         1 <0>         0.1272
     31 H13         1.4214   -9.3279    0.7568 H         1 <0>         0.1312
@<TRIPOS>BOND
     1    1    2 1
     2    1   19 1
     3    1   20 1
     4    1   21 1
     5    2    3 1
     6    2    4 1
     7    2   22 1
     8    3   23 1
     9    3   24 1
    10    3   25 1
    11    4    5 2
    12    4    6 2
    13    4    7 1
    14    7    8 2
    15    8    9 1
    16    8   10 1
    17   10   11 1
    18   10   26 1
    19   10   27 1
    20   11   12 1
    21   12   17 ar
    22   12   13 ar
    23   13   14 ar
    24   13   28 1
    25   14   15 ar
    26   14   29 1
    27   15   16 ar
    28   15   30 1
    29   16   17 ar
    30   16   31 1
    31   17   18 1
@<TRIPOS>MOLECULE
ZINC16129259
   25    26     0     0     0
SMALL
USER_CHARGES

@<TRIPOS>ATOM
      1 C1          1.0606   -0.6523   -0.0868 C.ar      1 <0>        -0.1111
      2 C2          2.3079   -0.0479   -0.0818 C.ar      1 <0>        -0.2234
      3 C3          2.3693    1.3416   -0.0297 C.ar      1 <0>         0.2534
      4 C4          1.1840    2.0679    0.0150 C.ar      1 <0>         0.1146
      5 N1          0.0181    1.4520    0.0083 N.ar      1 <0>        -0.4492
      6 C5         -0.0727    0.1368   -0.0405 C.ar      1 <0>        -0.0008
      7 Cl1         1.2400    3.8018    0.0808 Cl        1 <0>        -0.0511
      8 N2          3.6037    1.9973   -0.0221 N.2       1 <0>        -1.0623
      9 S1          5.0055    1.1221    0.0848 S.o2      1 <0>         2.6040
     10 O1          4.9628    0.4374    1.3292 O.2       1 <0>        -1.0202
     11 O2          5.1554    0.4424   -1.1540 O.2       1 <0>        -1.0181
     12 C6          6.3331    2.2758    0.1901 C.ar      1 <0>        -0.6001
     13 C7          6.9423    2.7347   -0.9631 C.ar      1 <0>        -0.0031
     14 C8          7.9839    3.6396   -0.8831 C.ar      1 <0>        -0.1500
     15 C9          8.4179    4.0877    0.3525 C.ar      1 <0>         0.1045
     16 C10         7.8068    3.6279    1.5089 C.ar      1 <0>         0.0426
     17 C11         6.7607    2.7253    1.4252 C.ar      1 <0>        -0.0260
     18 F1          8.2290    4.0635    2.7160 F         1 <0>        -0.1285
     19 F2          9.4363    4.9719    0.4316 F         1 <0>        -0.1271
     20 H1          0.9754   -1.7280   -0.1310 H         1 <0>         0.1219
     21 H2          3.2100   -0.6406   -0.1170 H         1 <0>         0.1166
     22 H3         -1.0467   -0.3297   -0.0446 H         1 <0>         0.1448
     23 H4          6.6041    2.3854   -1.9274 H         1 <0>         0.1560
     24 H5          8.4594    3.9968   -1.7846 H         1 <0>         0.1518
     25 H6          6.2813    2.3693    2.3251 H         1 <0>         0.1606
@<TRIPOS>BOND
     1    1    6 ar
     2    1    2 ar
     3    1   20 1
     4    2    3 ar
     5    2   21 1
     6    3    4 ar
     7    3    8 1
     8    4    5 ar
     9    4    7 1
    10    5    6 ar
    11    6   22 1
    12    8    9 1
    13    9   10 2
    14    9   11 2
    15    9   12 1
    16   12   17 ar
    17   12   13 ar
    18   13   14 ar
    19   13   23 1
    20   14   15 ar
    21   14   24 1
    22   15   16 ar
    23   15   19 1
    24   16   17 ar
    25   16   18 1
    26   17   25 1
@<TRIPOS>MOLECULE
ZINC62913732
   41    42     0     0     0
SMALL
USER_CHARGES

@<TRIPOS>ATOM
      1 C1         -0.0184    1.5028    0.0103 C.3       1 <0>        -0.1130
      2 C2          0.0021   -0.0041    0.0020 C.ar      1 <0>        -0.0951
      3 C3          0.0057   -0.6873   -1.2005 C.ar      1 <0>        -0.1044
      4 C4          0.0239   -2.0679   -1.2119 C.ar      1 <0>        -0.0977
      5 C5          0.0391   -2.7710   -0.0132 C.ar      1 <0>        -0.0832
      6 C6          0.0359   -2.0810    1.1932 C.ar      1 <0>        -0.1270
      7 C7          0.0229   -0.7003    1.1969 C.ar      1 <0>        -0.1001
      8 S1          0.0619   -4.5328   -0.0229 S.3       1 <0>        -0.1225
      9 C8          0.0766   -4.9812    1.7348 C.3       1 <0>        -0.0869
     10 C9          0.0970   -6.5048    1.8722 C.3       1 <0>        -0.1200
     11 C10         0.1093   -6.8773    3.3324 C.2       1 <0>         0.5330
     12 O1          0.1024   -6.0096    4.1797 O.2       1 <0>        -0.5450
     13 N1          0.1279   -8.1748    3.6968 N.am      1 <0>        -0.6120
     14 C11         0.1451   -9.3532    2.7996 C.3       1 <0>         0.0963
     15 C12        -0.7950  -10.3569    3.5134 C.3       1 <0>        -0.1047
     16 C13        -0.4754  -10.1236    5.0081 C.3       1 <0>        -0.1457
     17 C14         0.1419   -8.7115    5.0704 C.3       1 <0>         0.1173
     18 C15         0.5327  -11.1620    5.5044 C.3       1 <0>        -0.1149
     19 C16        -1.7378  -10.1839    5.8289 C.2       1 <0>         0.5061
     20 O2         -2.3967  -11.2093    5.8594 O.co2     1 <0>        -0.6932
     21 O3         -2.1002   -9.2073    6.4625 O.co2     1 <0>        -0.6883
     22 H1          1.0042    1.8801    0.0026 H         1 <0>         0.0695
     23 H2         -0.5455    1.8639   -0.8728 H         1 <0>         0.0657
     24 H3         -0.5286    1.8543    0.9071 H         1 <0>         0.0661
     25 H4         -0.0061   -0.1403   -2.1316 H         1 <0>         0.1258
     26 H5          0.0260   -2.6008   -2.1513 H         1 <0>         0.1272
     27 H6          0.0477   -2.6241    2.1266 H         1 <0>         0.1279
     28 H7          0.0244   -0.1634    2.1339 H         1 <0>         0.1253
     29 H8          0.9637   -4.5616    2.2093 H         1 <0>         0.0961
     30 H9         -0.8161   -4.5846    2.2184 H         1 <0>         0.0976
     31 H10        -0.7900   -6.9244    1.3977 H         1 <0>         0.1025
     32 H11         0.9898   -6.9014    1.3886 H         1 <0>         0.1007
     33 H12        -0.2455   -9.0932    1.8158 H         1 <0>         0.0742
     34 H13         1.1529   -9.7606    2.7191 H         1 <0>         0.0709
     35 H14        -1.8389  -10.1259    3.3012 H         1 <0>         0.0698
     36 H15        -0.5584  -11.3806    3.2233 H         1 <0>         0.0773
     37 H16         1.1670   -8.7677    5.4367 H         1 <0>         0.0524
     38 H17        -0.4542   -8.0747    5.7240 H         1 <0>         0.1020
     39 H18         1.4440  -11.0968    4.9098 H         1 <0>         0.0409
     40 H19         0.7674  -10.9691    6.5512 H         1 <0>         0.0487
     41 H20         0.1051  -12.1597    5.4057 H         1 <0>         0.0604
@<TRIPOS>BOND
     1    1    2 1
     2    1   22 1
     3    1   23 1
     4    1   24 1
     5    2    7 ar
     6    2    3 ar
     7    3    4 ar
     8    3   25 1
     9    4    5 ar
    10    4   26 1
    11    5    6 ar
    12    5    8 1
    13    6    7 ar
    14    6   27 1
    15    7   28 1
    16    8    9 1
    17    9   10 1
    18    9   29 1
    19    9   30 1
    20   10   11 1
    21   10   31 1
    22   10   32 1
    23   11   12 2
    24   11   13 am
    25   13   17 1
    26   13   14 1
    27   14   15 1
    28   14   33 1
    29   14   34 1
    30   15   16 1
    31   15   35 1
    32   15   36 1
    33   16   17 1
    34   16   18 1
    35   16   19 1
    36   17   37 1
    37   17   38 1
    38   18   39 1
    39   18   40 1
    40   18   41 1
    41   19   20 2
    42   19   21 1
@<TRIPOS>MOLECULE
ZINC09373709
   67    70     0     0     0
SMALL
USER_CHARGES
(5S)-3-hydroxy-5-(3-isopentyloxyphenyl)-1-(2-methoxyethyl)-4-[(2R)-2-methyl2,3-dihydrobenzofuran-5-carbonyl]-5H-pyrrol-2-one
@<TRIPOS>ATOM
      1 C1         -1.8809   -6.1461    4.1541 C.3       1 <0>        -0.1799
      2 C2         -0.5680   -5.4805    3.7366 C.3       1 <0>         0.0725
      3 H1          0.2351   -6.2124    3.9078 H         1 <0>         0.1140
      4 C3         -0.3891   -4.1227    4.4560 C.3       1 <0>        -0.0975
      5 C4         -0.9844   -3.1550    3.4512 C.ar      1 <0>        -0.1866
      6 C5         -1.3946   -1.8498    3.5629 C.ar      1 <0>        -0.0231
      7 C6         -1.9348   -1.1921    2.4526 C.ar      1 <0>        -0.1620
      8 C7         -2.0561   -1.8769    1.2393 C.ar      1 <0>        -0.0293
      9 C8         -1.6333   -3.1805    1.1362 C.ar      1 <0>        -0.1538
     10 C9         -1.0901   -3.8375    2.2421 C.ar      1 <0>         0.1177
     11 O1         -0.6066   -5.1040    2.3498 O.3       1 <0>        -0.3025
     12 C10        -2.3789    0.2113    2.5624 C.2       1 <0>         0.5074
     13 O2         -2.3710    0.7691    3.6440 O.2       1 <0>        -0.4778
     14 C11        -2.8294    0.9334    1.3683 C.2       1 <0>        -0.5017
     15 C12        -4.0727    1.4190    1.1374 C.2       1 <0>         0.2680
     16 C13        -4.0996    2.0764   -0.1861 C.2       1 <0>         0.5171
     17 O3         -5.0734    2.6091   -0.6803 O.2       1 <0>        -0.5219
     18 N1         -2.8868    1.9971   -0.7629 N.am      1 <0>        -0.6094
     19 C14        -1.9959    1.2798    0.1567 C.3       1 <0>         0.2657
     20 H2         -1.5885    0.3850   -0.3366 H         1 <0>         0.0666
     21 C15        -0.8430    2.1641    0.5566 C.ar      1 <0>        -0.0357
     22 C16        -1.0679    3.4911    0.8742 C.ar      1 <0>        -0.1246
     23 C17        -0.0116    4.3063    1.2358 C.ar      1 <0>        -0.0833
     24 C18         1.2712    3.7955    1.2858 C.ar      1 <0>        -0.2167
     25 C19         1.4987    2.4634    0.9728 C.ar      1 <0>         0.1243
     26 C20         0.4368    1.6473    0.6101 C.ar      1 <0>        -0.1459
     27 O4          2.7596    1.9587    1.0209 O.3       1 <0>        -0.3175
     28 C21         3.8037    2.8566    1.4023 C.3       1 <0>         0.0579
     29 C22         5.1414    2.1140    1.3994 C.3       1 <0>        -0.1153
     30 C23         6.2593    3.0754    1.8078 C.3       1 <0>        -0.0932
     31 C24         6.0461    3.5197    3.2562 C.3       1 <0>        -0.1552
     32 C25         7.6105    2.3681    1.6849 C.3       1 <0>        -0.1477
     33 C26        -2.5204    2.5315   -2.0768 C.3       1 <0>         0.1366
     34 C27        -2.7672    1.4667   -3.1474 C.3       1 <0>         0.0413
     35 O5         -4.1665    1.1887   -3.2291 O.3       1 <0>        -0.3694
     36 C28        -4.5070    0.2017   -4.2048 C.3       1 <0>         0.0305
     37 O6         -5.1231    1.3185    1.9843 O.3       1 <0>        -0.6527
     38 H3         -1.8287   -6.4252    5.2168 H         1 <0>         0.0737
     39 H4         -2.0445   -7.0478    3.5457 H         1 <0>         0.0663
     40 H5         -2.7133   -5.4437    3.9999 H         1 <0>         0.0644
     41 H6         -0.9321   -4.1402    5.4125 H         1 <0>         0.0901
     42 H7          0.6801   -3.9457    4.6446 H         1 <0>         0.0877
     43 H8         -1.3007   -1.3319    4.5059 H         1 <0>         0.1304
     44 H9         -2.4791   -1.3785    0.3797 H         1 <0>         0.1426
     45 H10        -1.7260   -3.7017    0.1948 H         1 <0>         0.1272
     46 H11        -2.0699    3.8923    0.8357 H         1 <0>         0.1196
     47 H12        -0.1893    5.3433    1.4798 H         1 <0>         0.1192
     48 H13         2.0960    4.4326    1.5688 H         1 <0>         0.1193
     49 H14         0.6114    0.6099    0.3656 H         1 <0>         0.1262
     50 H15         3.8470    3.6928    0.6889 H         1 <0>         0.0581
     51 H16         3.6024    3.2456    2.4114 H         1 <0>         0.0625
     52 H17         5.0981    1.2778    2.1128 H         1 <0>         0.0743
     53 H18         5.3427    1.7251    0.3903 H         1 <0>         0.0732
     54 H19         6.2448    3.9557    1.1484 H         1 <0>         0.0719
     55 H20         6.8499    4.2109    3.5498 H         1 <0>         0.0556
     56 H21         6.0605    2.6394    3.9156 H         1 <0>         0.0577
     57 H22         5.0747    4.0282    3.3445 H         1 <0>         0.0575
     58 H23         8.4142    3.0593    1.9785 H         1 <0>         0.0560
     59 H24         7.7638    2.0487    0.6435 H         1 <0>         0.0559
     60 H25         7.6248    1.4878    2.3443 H         1 <0>         0.0565
     61 H26        -3.1319    3.4195   -2.2950 H         1 <0>         0.0866
     62 H27        -1.4563    2.8104   -2.0755 H         1 <0>         0.0901
     63 H28        -2.4091    1.8349   -4.1201 H         1 <0>         0.0531
     64 H29        -2.2256    0.5470   -2.8815 H         1 <0>         0.0512
     65 H30        -5.5960    0.0465   -4.2048 H         1 <0>         0.0836
     66 H31        -4.0018   -0.7445   -3.9610 H         1 <0>         0.0377
     67 H32        -4.1853    0.5434   -5.1997 H         1 <0>         0.0349
@<TRIPOS>BOND
     1    1    2 1
     2    1   38 1
     3    1   39 1
     4    1   40 1
     5    2    3 1
     6    2   11 1
     7    2    4 1
     8    4    5 1
     9    4   41 1
    10    4   42 1
    11    5   10 ar
    12    5    6 ar
    13    6    7 ar
    14    6   43 1
    15    7    8 ar
    16    7   12 1
    17    8    9 ar
    18    8   44 1
    19    9   10 ar
    20    9   45 1
    21   10   11 1
    22   12   13 2
    23   12   14 1
    24   14   19 1
    25   14   15 2
    26   15   16 1
    27   15   37 1
    28   16   17 2
    29   16   18 am
    30   18   19 1
    31   18   33 1
    32   19   20 1
    33   19   21 1
    34   21   26 ar
    35   21   22 ar
    36   22   23 ar
    37   22   46 1
    38   23   24 ar
    39   23   47 1
    40   24   25 ar
    41   24   48 1
    42   25   26 ar
    43   25   27 1
    44   26   49 1
    45   27   28 1
    46   28   29 1
    47   28   50 1
    48   28   51 1
    49   29   30 1
    50   29   52 1
    51   29   53 1
    52   30   31 1
    53   30   32 1
    54   30   54 1
    55   31   55 1
    56   31   56 1
    57   31   57 1
    58   32   58 1
    59   32   59 1
    60   32   60 1
    61   33   34 1
    62   33   61 1
    63   33   62 1
    64   34   35 1
    65   34   63 1
    66   34   64 1
    67   35   36 1
    68   36   65 1
    69   36   66 1
    70   36   67 1
@<TRIPOS>MOLECULE
ZINC16733256
   61    63     0     0     0
SMALL
USER_CHARGES
(4E,5S)-5-(4-allyloxyphenyl)-4-[(3-chloro-4-ethoxy-phenyl)-hydroxy-methylene]-1-(3-methoxypropyl)pyrrolidine-2,3-dione
@<TRIPOS>ATOM
      1 C1          6.4844    8.0302   -1.2588 C.3       1 <0>        -0.1513
      2 C2          5.6298    6.7611   -1.2633 C.3       1 <0>         0.0509
      3 O1          6.2540    5.7636   -0.4524 O.3       1 <0>        -0.3073
      4 C3          5.6201    4.5681   -0.3492 C.ar      1 <0>         0.1365
      5 C4          4.4186    4.3608   -1.0178 C.ar      1 <0>        -0.2051
      6 C5          3.7745    3.1485   -0.9212 C.ar      1 <0>        -0.0069
      7 C6          4.3253    2.1258   -0.1392 C.ar      1 <0>        -0.0960
      8 C7          5.5352    2.3386    0.5324 C.ar      1 <0>        -0.0420
      9 C8          6.1748    3.5535    0.4251 C.ar      1 <0>        -0.0776
     10 Cl1         7.6748    3.8199    1.2574 Cl        1 <0>        -0.0745
     11 C9          3.6380    0.8300   -0.0286 C.2       1 <0>         0.4021
     12 C10         2.3013    0.7844    0.3178 C.2       1 <0>        -0.4948
     13 C11         1.4102   -0.4360    0.3391 C.3       1 <0>         0.2694
     14 H1          1.7815   -1.2047    1.0329 H         1 <0>         0.0725
     15 N1          0.0853    0.0195    0.7702 N.am      1 <0>        -0.5994
     16 C12         0.1296    1.3440    0.9915 C.2       1 <0>         0.4763
     17 O2         -0.8108    2.0205    1.3548 O.2       1 <0>        -0.5329
     18 C13         1.4979    1.8614    0.7201 C.2       1 <0>         0.3691
     19 O3          1.8581    3.0198    0.8286 O.3       1 <0>        -0.4995
     20 C14        -1.0960   -0.8316    0.9325 C.3       1 <0>         0.1367
     21 C15        -1.8709   -0.8854   -0.3857 C.3       1 <0>        -0.1494
     22 C16        -3.1046   -1.7742   -0.2161 C.3       1 <0>         0.0654
     23 O4         -3.8283   -1.8245   -1.4473 O.3       1 <0>        -0.3892
     24 C17        -5.0055   -2.6331   -1.3969 C.3       1 <0>         0.0296
     25 C18         1.3255   -1.0384   -1.0396 C.ar      1 <0>        -0.1007
     26 C19         0.5172   -0.4565   -1.9986 C.ar      1 <0>        -0.0599
     27 C20         0.4422   -1.0035   -3.2649 C.ar      1 <0>        -0.2133
     28 C21         1.1699   -2.1444   -3.5706 C.ar      1 <0>         0.1165
     29 C22         1.9758   -2.7297   -2.6049 C.ar      1 <0>        -0.1546
     30 C23         2.0518   -2.1755   -1.3418 C.ar      1 <0>        -0.0458
     31 O5          1.0939   -2.6875   -4.8140 O.3       1 <0>        -0.3158
     32 C24         0.2443   -2.0317   -5.7575 C.3       1 <0>         0.0854
     33 C25         0.2868   -2.7706   -7.0702 C.2       1 <0>        -0.1529
     34 C26        -0.8242   -3.0187   -7.7185 C.2       1 <0>        -0.1819
     35 O6          4.3134   -0.3148   -0.2657 O.2       1 <0>        -0.6260
     36 H2          6.0039    8.7980   -1.8830 H         1 <0>         0.0761
     37 H3          7.4822    7.8018   -1.6616 H         1 <0>         0.0651
     38 H4          6.5815    8.4032   -0.2285 H         1 <0>         0.0659
     39 H5          4.6320    6.9895   -0.8605 H         1 <0>         0.0640
     40 H6          5.5327    6.3881   -2.2936 H         1 <0>         0.0618
     41 H7          3.9921    5.1513   -1.6175 H         1 <0>         0.1308
     42 H8          2.8435    2.9875   -1.4444 H         1 <0>         0.1261
     43 H9          5.9659    1.5516    1.1337 H         1 <0>         0.1381
     44 H10        -0.7804   -1.8471    1.2140 H         1 <0>         0.0792
     45 H11        -1.7415   -0.4166    1.7206 H         1 <0>         0.0796
     46 H12        -2.1864    0.1301   -0.6672 H         1 <0>         0.0731
     47 H13        -1.2255   -1.3005   -1.1738 H         1 <0>         0.0913
     48 H14        -2.7890   -2.7896    0.0655 H         1 <0>         0.0496
     49 H15        -3.7501   -1.3591    0.5720 H         1 <0>         0.0485
     50 H16        -5.5021   -2.6193   -2.3783 H         1 <0>         0.0840
     51 H17        -5.6907   -2.2359   -0.6336 H         1 <0>         0.0397
     52 H18        -4.7297   -3.6665   -1.1400 H         1 <0>         0.0401
     53 H19        -0.0526    0.4291   -1.7589 H         1 <0>         0.1152
     54 H20        -0.1859   -0.5460   -4.0150 H         1 <0>         0.1188
     55 H21         2.5436   -3.6177   -2.8405 H         1 <0>         0.1232
     56 H22         2.6788   -2.6310   -0.5895 H         1 <0>         0.1297
     57 H23        -0.7874   -2.0207   -5.3761 H         1 <0>         0.0665
     58 H24         0.5910   -0.9985   -5.9069 H         1 <0>         0.0705
     59 H25         1.2507   -3.1016   -7.4840 H         1 <0>         0.1206
     60 H26        -0.7932   -3.5581   -8.6767 H         1 <0>         0.1077
     61 H27        -1.7881   -2.6877   -7.3047 H         1 <0>         0.1012
@<TRIPOS>BOND
     1    1    2 1
     2    1   36 1
     3    1   37 1
     4    1   38 1
     5    2    3 1
     6    2   39 1
     7    2   40 1
     8    3    4 1
     9    4    9 ar
    10    4    5 ar
    11    5    6 ar
    12    5   41 1
    13    6    7 ar
    14    6   42 1
    15    7    8 ar
    16    7   11 1
    17    8    9 ar
    18    8   43 1
    19    9   10 1
    20   11   12 1
    21   11   35 2
    22   12   18 2
    23   12   13 1
    24   13   14 1
    25   13   15 1
    26   13   25 1
    27   15   16 am
    28   15   20 1
    29   16   17 2
    30   16   18 1
    31   18   19 1
    32   20   21 1
    33   20   44 1
    34   20   45 1
    35   21   22 1
    36   21   46 1
    37   21   47 1
    38   22   23 1
    39   22   48 1
    40   22   49 1
    41   23   24 1
    42   24   50 1
    43   24   51 1
    44   24   52 1
    45   25   30 ar
    46   25   26 ar
    47   26   27 ar
    48   26   53 1
    49   27   28 ar
    50   27   54 1
    51   28   29 ar
    52   28   31 1
    53   29   30 ar
    54   29   55 1
    55   30   56 1
    56   31   32 1
    57   32   33 1
    58   32   57 1
    59   32   58 1
    60   33   34 2
    61   33   59 1
    62   34   60 1
    63   34   61 1
@<TRIPOS>MOLECULE
ZINC35568496
   68    71     0     0     0
SMALL
USER_CHARGES

@<TRIPOS>ATOM
      1 C1          5.2265    2.5569   -5.3140 C.3       1 <0>        -0.1532
      2 C2          5.4295    1.0557   -5.5287 C.3       1 <0>        -0.1265
      3 C3          4.2882    0.2860   -4.8609 C.3       1 <0>        -0.1183
      4 C4          4.4912   -1.2152   -5.0757 C.3       1 <0>        -0.1184
      5 C5          3.3498   -1.9848   -4.4079 C.3       1 <0>        -0.1167
      6 C6          3.5528   -3.4860   -4.6226 C.3       1 <0>         0.0620
      7 O1          2.4869   -4.2048   -3.9989 O.3       1 <0>        -0.3227
      8 C7          2.5164   -5.5600   -4.0967 C.ar      1 <0>         0.1254
      9 C8          3.5531   -6.1853   -4.7741 C.ar      1 <0>        -0.2062
     10 C9          3.5811   -7.5630   -4.8717 C.ar      1 <0>        -0.0190
     11 C10         2.5767   -8.3186   -4.2954 C.ar      1 <0>        -0.0880
     12 C11         1.5421   -7.6978   -3.6202 C.ar      1 <0>        -0.0506
     13 C12         1.5129   -6.3207   -3.5145 C.ar      1 <0>        -0.1580
     14 C13         2.6095   -9.8213   -4.4039 C.3       1 <0>         0.2524
     15 H1          1.8761  -10.2616   -3.7283 H         1 <0>         0.0658
     16 C14         3.9919  -10.3359   -4.0769 C.2       1 <0>        -0.4809
     17 C15         4.4415  -10.9755   -5.1805 C.2       1 <0>         0.2826
     18 C16         3.4101  -10.9081   -6.2354 C.2       1 <0>         0.5092
     19 O2          3.5156  -11.3909   -7.3455 O.2       1 <0>        -0.5348
     20 N1          2.3347  -10.2338   -5.7854 N.am      1 <0>        -0.6008
     21 C17         1.1088   -9.9602   -6.5394 C.3       1 <0>         0.1409
     22 C18         1.2858   -8.6761   -7.3523 C.3       1 <0>         0.0608
     23 H2          2.1579   -8.7571   -8.0012 H         1 <0>         0.0703
     24 C19         0.0151   -8.3917   -8.1920 C.3       1 <0>        -0.1466
     25 C20         0.1228   -6.8536   -8.3779 C.3       1 <0>        -0.1534
     26 C21         0.7614   -6.4064   -7.0454 C.3       1 <0>         0.0534
     27 O3          1.4196   -7.5458   -6.4760 O.3       1 <0>        -0.3431
     28 O4          5.6463  -11.5811   -5.2995 O.3       1 <0>        -0.6068
     29 C22         4.7089  -10.1727   -2.8066 C.2       1 <0>         0.5022
     30 O5          5.8737  -10.5179   -2.7159 O.2       1 <0>        -0.4771
     31 C23         4.0232   -9.5940   -1.6467 C.2       1 <0>        -0.2412
     32 C24         4.5328   -9.2168   -0.4096 C.2       1 <0>         0.1008
     33 N2          3.6724   -8.7216    0.4441 N.2       1 <0>        -0.5238
     34 C25         2.4000   -8.5902    0.1450 C.2       1 <0>         0.0062
     35 S1          2.3017   -9.1699   -1.4319 S.3       1 <0>         0.1694
     36 C26         1.2917   -8.0436    1.0076 C.3       1 <0>        -0.0589
     37 C27         5.9931   -9.3696   -0.0701 C.3       1 <0>        -0.0815
     38 H3          4.2767    2.8616   -5.7535 H         1 <0>         0.0530
     39 H4          5.2186    2.7733   -4.2457 H         1 <0>         0.0533
     40 H5          6.0396    3.1052   -5.7898 H         1 <0>         0.0527
     41 H6          5.4374    0.8393   -6.5970 H         1 <0>         0.0610
     42 H7          6.3792    0.7509   -5.0892 H         1 <0>         0.0615
     43 H8          4.2802    0.5025   -3.7927 H         1 <0>         0.0626
     44 H9          3.3384    0.5908   -5.3004 H         1 <0>         0.0622
     45 H10         4.4991   -1.4316   -6.1439 H         1 <0>         0.0645
     46 H11         5.4409   -1.5199   -4.6362 H         1 <0>         0.0652
     47 H12         3.3419   -1.7684   -3.3396 H         1 <0>         0.0713
     48 H13         2.4001   -1.6800   -4.8474 H         1 <0>         0.0708
     49 H14         3.5608   -3.7024   -5.6909 H         1 <0>         0.0574
     50 H15         4.5026   -3.7907   -4.1831 H         1 <0>         0.0580
     51 H16         4.3375   -5.5955   -5.2250 H         1 <0>         0.1130
     52 H17         4.3879   -8.0503   -5.3989 H         1 <0>         0.1141
     53 H18         0.7586   -8.2901   -3.1712 H         1 <0>         0.1181
     54 H19         0.7069   -5.8364   -2.9831 H         1 <0>         0.1166
     55 H20         0.9038  -10.7917   -7.2138 H         1 <0>         0.0876
     56 H21         0.2755   -9.8400   -5.8471 H         1 <0>         0.0824
     57 H22         0.0549   -8.9071   -9.1516 H         1 <0>         0.0796
     58 H23        -0.8872   -8.6587   -7.6419 H         1 <0>         0.0784
     59 H24         0.7704   -6.6090   -9.2199 H         1 <0>         0.0711
     60 H25        -0.8640   -6.4081   -8.5039 H         1 <0>         0.0758
     61 H26         1.4884   -5.6157   -7.2308 H         1 <0>         0.0563
     62 H27        -0.0122   -6.0475   -6.3667 H         1 <0>         0.0632
     63 H28         1.2070   -6.9681    0.8521 H         1 <0>         0.0827
     64 H29         0.3512   -8.5247    0.7388 H         1 <0>         0.0799
     65 H30         1.5152   -8.2427    2.0557 H         1 <0>         0.0840
     66 H31         6.5284   -8.4627   -0.3514 H         1 <0>         0.0695
     67 H32         6.1014   -9.5377    1.0014 H         1 <0>         0.0645
     68 H33         6.4058  -10.2188   -0.6146 H         1 <0>         0.0950
@<TRIPOS>BOND
     1    1    2 1
     2    1   38 1
     3    1   39 1
     4    1   40 1
     5    2    3 1
     6    2   41 1
     7    2   42 1
     8    3    4 1
     9    3   43 1
    10    3   44 1
    11    4    5 1
    12    4   45 1
    13    4   46 1
    14    5    6 1
    15    5   47 1
    16    5   48 1
    17    6    7 1
    18    6   49 1
    19    6   50 1
    20    7    8 1
    21    8   13 ar
    22    8    9 ar
    23    9   10 ar
    24    9   51 1
    25   10   11 ar
    26   10   52 1
    27   11   12 ar
    28   11   14 1
    29   12   13 ar
    30   12   53 1
    31   13   54 1
    32   14   15 1
    33   14   20 1
    34   14   16 1
    35   16   17 2
    36   16   29 1
    37   17   18 1
    38   17   28 1
    39   18   19 2
    40   18   20 am
    41   20   21 1
    42   21   22 1
    43   21   55 1
    44   21   56 1
    45   22   23 1
    46   22   27 1
    47   22   24 1
    48   24   25 1
    49   24   57 1
    50   24   58 1
    51   25   26 1
    52   25   59 1
    53   25   60 1
    54   26   27 1
    55   26   61 1
    56   26   62 1
    57   29   30 2
    58   29   31 1
    59   31   35 1
    60   31   32 2
    61   32   33 1
    62   32   37 1
    63   33   34 2
    64   34   35 1
    65   34   36 1
    66   36   63 1
    67   36   64 1
    68   36   65 1
    69   37   66 1
    70   37   67 1
    71   37   68 1
@<TRIPOS>MOLECULE
ZINC40000058
   61    64     0     0     0
SMALL
USER_CHARGES

@<TRIPOS>ATOM
      1 C1         -5.9645   -2.8050   -0.2775 C.3       1 <0>        -0.1517
      2 C2         -4.6701   -3.6128   -0.1636 C.3       1 <0>        -0.1222
      3 C3         -4.2630   -4.1217   -1.5479 C.3       1 <0>        -0.1195
      4 C4         -2.9687   -4.9295   -1.4340 C.3       1 <0>         0.0572
      5 O1         -2.5885   -5.4049   -2.7268 O.3       1 <0>        -0.3152
      6 C5         -1.4534   -6.1447   -2.8020 C.ar      1 <0>         0.1443
      7 C6         -0.7228   -6.4123   -1.6496 C.ar      1 <0>        -0.2238
      8 C7          0.4291   -7.1628   -1.7214 C.ar      1 <0>        -0.0306
      9 C8          0.8640   -7.6561   -2.9552 C.ar      1 <0>        -0.1752
     10 C9          0.1263   -7.3846   -4.1116 C.ar      1 <0>        -0.0266
     11 C10        -1.0272   -6.6378   -4.0302 C.ar      1 <0>        -0.1666
     12 C11         2.0988   -8.4609   -3.0370 C.2       1 <0>         0.5094
     13 O2          2.6845   -8.7819   -2.0194 O.2       1 <0>        -0.4687
     14 C12         2.6195   -8.8735   -4.3432 C.2       1 <0>        -0.4801
     15 C13         2.7309  -10.1419   -4.8047 C.2       1 <0>         0.2704
     16 C14         3.3029  -10.1147   -6.1656 C.2       1 <0>         0.5109
     17 O3          3.5255  -11.0954   -6.8481 O.2       1 <0>        -0.4862
     18 N1          3.5413   -8.8443   -6.5389 N.am      1 <0>        -0.4981
     19 C15         3.1295   -7.9655   -5.4379 C.3       1 <0>         0.2660
     20 H1          2.3368   -7.2939   -5.7677 H         1 <0>         0.0894
     21 C16         4.3109   -7.1709   -4.9438 C.ar      1 <0>        -0.0741
     22 C17         5.5403   -7.7838   -4.7895 C.ar      1 <0>        -0.0883
     23 C18         6.6239   -7.0550   -4.3362 C.ar      1 <0>        -0.1198
     24 C19         6.4782   -5.7131   -4.0377 C.ar      1 <0>        -0.0932
     25 C20         5.2490   -5.1000   -4.1929 C.ar      1 <0>        -0.1198
     26 C21         4.1664   -5.8279   -4.6502 C.ar      1 <0>        -0.0952
     27 C22         7.6593   -4.9188   -3.5426 C.3       1 <0>        -0.1089
     28 C23         4.0773   -8.4361   -7.7545 C.2       1 <0>         0.3255
     29 N2          4.3489   -7.2190   -8.1986 N.2       1 <0>        -0.3102
     30 N3          4.8410   -7.0195   -9.3426 N.2       1 <0>        -0.2492
     31 C24         5.1165   -8.0175  -10.1705 C.2       1 <0>        -0.0275
     32 S1          4.6050   -9.4068   -9.1634 S.3       1 <0>         0.0814
     33 S2          5.7973   -7.9861  -11.7954 S.3       1 <0>         0.0272
     34 C25         6.0607   -6.2222  -12.1269 C.3       1 <0>        -0.1138
     35 C26         6.6569   -6.0496  -13.5254 C.3       1 <0>        -0.1376
     36 O4          2.3751  -11.2571   -4.1261 O.3       1 <0>        -0.6333
     37 H2         -5.8062   -1.9573   -0.9442 H         1 <0>         0.0554
     38 H3         -6.7548   -3.4398   -0.6782 H         1 <0>         0.0555
     39 H4         -6.2545   -2.4425    0.7086 H         1 <0>         0.0559
     40 H5         -3.8797   -2.9781    0.2370 H         1 <0>         0.0648
     41 H6         -4.8283   -4.4605    0.5031 H         1 <0>         0.0650
     42 H7         -5.0534   -4.7565   -1.9485 H         1 <0>         0.0734
     43 H8         -4.1048   -3.2740   -2.2146 H         1 <0>         0.0733
     44 H9         -2.1783   -4.2948   -1.0333 H         1 <0>         0.0623
     45 H10        -3.1269   -5.7772   -0.7673 H         1 <0>         0.0624
     46 H11        -1.0592   -6.0306   -0.6970 H         1 <0>         0.1271
     47 H12         0.9962   -7.3700   -0.8259 H         1 <0>         0.1328
     48 H13         0.4590   -7.7635   -5.0666 H         1 <0>         0.1386
     49 H14        -1.5998   -6.4311   -4.9223 H         1 <0>         0.1315
     50 H15         5.6541   -8.8322   -5.0227 H         1 <0>         0.1098
     51 H16         7.5842   -7.5340   -4.2150 H         1 <0>         0.1158
     52 H17         5.1351   -4.0518   -3.9593 H         1 <0>         0.1177
     53 H18         3.2070   -5.3480   -4.7750 H         1 <0>         0.1204
     54 H19         8.1874   -4.4854   -4.3919 H         1 <0>         0.0649
     55 H20         7.3114   -4.1216   -2.8858 H         1 <0>         0.0627
     56 H21         8.3334   -5.5750   -2.9920 H         1 <0>         0.0623
     57 H22         5.1079   -5.6957  -12.0706 H         1 <0>         0.0953
     58 H23         6.7469   -5.8119  -11.3862 H         1 <0>         0.0951
     59 H24         6.8151   -4.9897  -13.7246 H         1 <0>         0.0787
     60 H25         7.6096   -6.5761  -13.5817 H         1 <0>         0.0665
     61 H26         5.9706   -6.4600  -14.2661 H         1 <0>         0.0666
@<TRIPOS>BOND
     1    1    2 1
     2    1   37 1
     3    1   38 1
     4    1   39 1
     5    2    3 1
     6    2   40 1
     7    2   41 1
     8    3    4 1
     9    3   42 1
    10    3   43 1
    11    4    5 1
    12    4   44 1
    13    4   45 1
    14    5    6 1
    15    6   11 ar
    16    6    7 ar
    17    7    8 ar
    18    7   46 1
    19    8    9 ar
    20    8   47 1
    21    9   10 ar
    22    9   12 1
    23   10   11 ar
    24   10   48 1
    25   11   49 1
    26   12   13 2
    27   12   14 1
    28   14   19 1
    29   14   15 2
    30   15   16 1
    31   15   36 1
    32   16   17 2
    33   16   18 am
    34   18   19 1
    35   18   28 1
    36   19   20 1
    37   19   21 1
    38   21   26 ar
    39   21   22 ar
    40   22   23 ar
    41   22   50 1
    42   23   24 ar
    43   23   51 1
    44   24   25 ar
    45   24   27 1
    46   25   26 ar
    47   25   52 1
    48   26   53 1
    49   27   54 1
    50   27   55 1
    51   27   56 1
    52   28   32 1
    53   28   29 2
    54   29   30 1
    55   30   31 2
    56   31   32 1
    57   31   33 1
    58   33   34 1
    59   34   35 1
    60   34   57 1
    61   34   58 1
    62   35   59 1
    63   35   60 1
    64   35   61 1
@<TRIPOS>MOLECULE
ZINC40109201
   64    67     0     0     0
SMALL
USER_CHARGES

@<TRIPOS>ATOM
      1 C1          0.4403    1.7857   -0.2374 C.3       1 <0>        -0.1504
      2 C2          0.8098    0.3107   -0.4068 C.3       1 <0>        -0.1202
      3 C3          1.1767   -0.2828    0.9548 C.3       1 <0>        -0.1444
      4 C4          1.5462   -1.7578    0.7854 C.3       1 <0>         0.1352
      5 N1          1.8976   -2.3261    2.0892 N.am      1 <0>        -0.6138
      6 C5          3.2375   -2.3519    2.6872 C.3       1 <0>         0.2643
      7 H1          3.9206   -2.9160    2.0522 H         1 <0>         0.0786
      8 C6          3.0884   -3.0360    4.0261 C.2       1 <0>        -0.5084
      9 C7          1.7804   -3.3596    4.1558 C.2       1 <0>         0.2691
     10 C8          1.0478   -2.9114    2.9526 C.2       1 <0>         0.5117
     11 O1         -0.1448   -3.0530    2.7693 O.2       1 <0>        -0.5284
     12 O2          1.2303   -3.9889    5.2195 O.3       1 <0>        -0.6448
     13 C9          4.1546   -3.2990    4.9970 C.2       1 <0>         0.5034
     14 O3          4.1404   -2.7461    6.0807 O.2       1 <0>        -0.4679
     15 C10         5.2473   -4.2363    4.6594 C.ar      1 <0>        -0.1012
     16 C11         5.2410   -4.9085    3.4350 C.ar      1 <0>        -0.1013
     17 C12         6.2620   -5.7821    3.1235 C.ar      1 <0>        -0.0967
     18 C13         7.2931   -5.9957    4.0204 C.ar      1 <0>        -0.1928
     19 C14         7.3081   -5.3321    5.2399 C.ar      1 <0>         0.1119
     20 C15         6.2917   -4.4482    5.5605 C.ar      1 <0>        -0.1039
     21 O4          8.3240   -5.5460    6.1171 O.3       1 <0>        -0.3093
     22 C16         9.3421   -6.4662    5.7188 C.3       1 <0>         0.1021
     23 C17        10.3761   -6.5745    6.8097 C.ar      1 <0>        -0.0992
     24 C18        11.4648   -5.7227    6.8172 C.ar      1 <0>        -0.0901
     25 C19        12.4132   -5.8220    7.8179 C.ar      1 <0>        -0.1250
     26 C20        12.2728   -6.7728    8.8114 C.ar      1 <0>        -0.0792
     27 C21        11.1837   -7.6241    8.8045 C.ar      1 <0>        -0.1251
     28 C22        10.2329   -7.5219    7.8061 C.ar      1 <0>        -0.0903
     29 C23        13.3073   -6.8817    9.9018 C.3       1 <0>        -0.1161
     30 C24         3.7478   -0.9465    2.8760 C.ar      1 <0>        -0.0703
     31 C25         2.9454    0.0053    3.4774 C.ar      1 <0>        -0.0301
     32 C26         3.4133    1.2942    3.6505 C.ar      1 <0>        -0.1210
     33 C27         4.6840    1.6316    3.2228 C.ar      1 <0>        -0.0617
     34 C28         5.4865    0.6799    2.6224 C.ar      1 <0>        -0.0525
     35 C29         5.0200   -0.6106    2.4531 C.ar      1 <0>        -0.0523
     36 N2          6.8468    1.0412    2.1640 N.pl3     1 <0>         0.0400
     37 O5          7.2214    2.1889    2.2284 O.2       1 <0>        -0.1715
     38 O6          7.5831    0.1887    1.7252 O.3       1 <0>        -0.1639
     39 H2          1.2898    2.3277    0.1782 H         1 <0>         0.0520
     40 H3          0.1789    2.2085   -1.2074 H         1 <0>         0.0520
     41 H4         -0.4111    1.8717    0.4378 H         1 <0>         0.0541
     42 H5         -0.0397   -0.2313   -0.8224 H         1 <0>         0.0630
     43 H6          1.6612    0.2247   -1.0820 H         1 <0>         0.0603
     44 H7          2.0262    0.2592    1.3704 H         1 <0>         0.0665
     45 H8          0.3253   -0.1968    1.6300 H         1 <0>         0.0676
     46 H9          0.6967   -2.2998    0.3698 H         1 <0>         0.0809
     47 H10         2.3976   -1.8438    0.1103 H         1 <0>         0.0742
     48 H11         4.4370   -4.7447    2.7327 H         1 <0>         0.1356
     49 H12         6.2560   -6.3013    2.1765 H         1 <0>         0.1264
     50 H13         8.0894   -6.6814    3.7712 H         1 <0>         0.1251
     51 H14         6.3046   -3.9281    6.5069 H         1 <0>         0.1360
     52 H15         8.8975   -7.4455    5.5411 H         1 <0>         0.0696
     53 H16         9.8154   -6.1107    4.8036 H         1 <0>         0.0702
     54 H17        11.5745   -4.9798    6.0410 H         1 <0>         0.1252
     55 H18        13.2642   -5.1569    7.8233 H         1 <0>         0.1240
     56 H19        11.0741   -8.3672    9.5805 H         1 <0>         0.1238
     57 H20         9.3801   -8.1845    7.8028 H         1 <0>         0.1249
     58 H21        13.0278   -6.2353   10.7337 H         1 <0>         0.0717
     59 H22        13.3641   -7.9141   10.2470 H         1 <0>         0.0663
     60 H23        14.2784   -6.5746    9.5133 H         1 <0>         0.0664
     61 H24         1.9527   -0.2583    3.8115 H         1 <0>         0.1379
     62 H25         2.7862    2.0379    4.1197 H         1 <0>         0.1440
     63 H26         5.0494    2.6390    3.3574 H         1 <0>         0.1476
     64 H27         5.6485   -1.3552    1.9874 H         1 <0>         0.1498
@<TRIPOS>BOND
     1    1    2 1
     2    1   39 1
     3    1   40 1
     4    1   41 1
     5    2    3 1
     6    2   42 1
     7    2   43 1
     8    3    4 1
     9    3   44 1
    10    3   45 1
    11    4    5 1
    12    4   46 1
    13    4   47 1
    14    5   10 am
    15    5    6 1
    16    6    7 1
    17    6    8 1
    18    6   30 1
    19    8    9 2
    20    8   13 1
    21    9   10 1
    22    9   12 1
    23   10   11 2
    24   13   14 2
    25   13   15 1
    26   15   20 ar
    27   15   16 ar
    28   16   17 ar
    29   16   48 1
    30   17   18 ar
    31   17   49 1
    32   18   19 ar
    33   18   50 1
    34   19   20 ar
    35   19   21 1
    36   20   51 1
    37   21   22 1
    38   22   23 1
    39   22   52 1
    40   22   53 1
    41   23   28 ar
    42   23   24 ar
    43   24   25 ar
    44   24   54 1
    45   25   26 ar
    46   25   55 1
    47   26   27 ar
    48   26   29 1
    49   27   28 ar
    50   27   56 1
    51   28   57 1
    52   29   58 1
    53   29   59 1
    54   29   60 1
    55   30   35 ar
    56   30   31 ar
    57   31   32 ar
    58   31   61 1
    59   32   33 ar
    60   32   62 1
    61   33   34 ar
    62   33   63 1
    63   34   35 ar
    64   34   36 1
    65   35   64 1
    66   36   37 2
    67   36   38 1
@<TRIPOS>MOLECULE
ZINC35281948
   33    34     0     0     0
SMALL
USER_CHARGES

@<TRIPOS>ATOM
      1 C1          0.0010    1.5861   -0.0163 C.3       1 <0>        -0.1546
      2 C2          0.0080    0.0561   -0.0131 C.3       1 <0>        -0.0790
      3 C3         -1.4321   -0.4604   -0.0005 C.3       1 <0>        -0.1450
      4 C4          0.7215   -0.4532   -1.2670 C.3       1 <0>        -0.0822
      5 C5          0.8409   -1.9906   -1.2369 C.3       1 <0>        -0.1439
      6 C6          2.3349   -2.2305   -1.2437 C.2       1 <0>         0.5372
      7 O1          2.8716   -3.3173   -1.2263 O.2       1 <0>        -0.4781
      8 N1          2.9700   -1.0523   -1.2724 N.am      1 <0>        -0.4586
      9 C7          2.1606    0.0139   -1.2877 C.2       1 <0>         0.5481
     10 O2          2.5231    1.1703   -1.3143 O.2       1 <0>        -0.4669
     11 C8          4.3551   -0.9450   -1.2850 C.2       1 <0>        -0.0008
     12 C9          5.2084   -0.7735   -0.2021 C.2       1 <0>        -0.1500
     13 C10         6.6208   -0.6925   -0.5004 C.2       1 <0>        -0.1021
     14 C11         6.9526   -0.7928   -1.8003 C.2       1 <0>        -0.2054
     15 S1          5.3821   -1.0001   -2.6105 S.3       1 <0>         0.1117
     16 C12         4.7046   -0.6794    1.1670 C.2       1 <0>         0.5339
     17 O3          5.4734   -0.4269    2.0865 O.co2     1 <0>        -0.6843
     18 O4          3.5138   -0.8531    1.3947 O.co2     1 <0>        -0.6815
     19 C13        -0.0126    0.0086   -2.5275 C.3       1 <0>        -0.1352
     20 H1          1.0269    1.9541   -0.0253 H         1 <0>         0.0736
     21 H2         -0.5216    1.9452   -0.9029 H         1 <0>         0.0549
     22 H3         -0.5074    1.9490    0.8770 H         1 <0>         0.0547
     23 H4          0.5306   -0.3029    0.8735 H         1 <0>         0.0898
     24 H5         -1.9547   -0.1013   -0.8871 H         1 <0>         0.0589
     25 H6         -1.4271   -1.5504    0.0018 H         1 <0>         0.0575
     26 H7         -1.9405   -0.0975    0.8928 H         1 <0>         0.0595
     27 H8          0.3919   -2.3925   -0.3286 H         1 <0>         0.1245
     28 H9          0.3780   -2.4287   -2.1211 H         1 <0>         0.1188
     29 H10         7.3634   -0.5594    0.2723 H         1 <0>         0.1480
     30 H11         7.9363   -0.7594   -2.2449 H         1 <0>         0.1850
     31 H12        -0.0395    1.0979   -2.5537 H         1 <0>         0.0745
     32 H13         0.5096   -0.3634   -3.4090 H         1 <0>         0.0593
     33 H14        -1.0310   -0.3799   -2.5176 H         1 <0>         0.0777
@<TRIPOS>BOND
     1    1    2 1
     2    1   20 1
     3    1   21 1
     4    1   22 1
     5    2    3 1
     6    2    4 1
     7    2   23 1
     8    3   24 1
     9    3   25 1
    10    3   26 1
    11    4    9 1
    12    4    5 1
    13    4   19 1
    14    5    6 1
    15    5   27 1
    16    5   28 1
    17    6    7 2
    18    6    8 am
    19    8    9 am
    20    8   11 1
    21    9   10 2
    22   11   15 1
    23   11   12 2
    24   12   13 1
    25   12   16 1
    26   13   14 2
    27   13   29 1
    28   14   15 1
    29   14   30 1
    30   16   17 2
    31   16   18 1
    32   19   31 1
    33   19   32 1
    34   19   33 1
@<TRIPOS>MOLECULE
ZINC43586792
   41    41     0     0     0
SMALL
USER_CHARGES

@<TRIPOS>ATOM
      1 C1         -4.8143   -1.6065   -0.5017 C.3       1 <0>        -0.1657
      2 C2         -3.7241   -2.0321    0.4838 C.3       1 <0>         0.1301
      3 N1         -3.2429   -0.8584    1.2165 N.am      1 <0>        -0.6307
      4 C3         -3.9549   -0.3979    2.4111 C.3       1 <0>         0.0643
      5 C4         -3.9386   -1.5008    3.4715 C.3       1 <0>        -0.1846
      6 C5         -2.1450   -0.2022    0.7916 C.2       1 <0>         0.7120
      7 O1         -1.7588   -0.3408   -0.3530 O.2       1 <0>        -0.5943
      8 N2         -1.4752    0.6077    1.6354 N.am      1 <0>        -0.6253
      9 C6         -0.4300    1.5108    1.1346 C.3       1 <0>         0.1289
     10 C7          0.8551    1.2679    1.9322 C.3       1 <0>        -0.1326
     11 C8          0.5592    1.4163    3.4263 C.3       1 <0>        -0.1150
     12 C9         -0.4764    0.3718    3.8492 C.3       1 <0>        -0.1029
     13 H1         -0.0964   -0.6263    3.6313 H         1 <0>         0.0680
     14 C10        -1.7805    0.6086    3.0725 C.3       1 <0>         0.0634
     15 C11        -0.7465    0.4990    5.3498 C.3       1 <0>        -0.0867
     16 C12        -1.6860   -0.6233    5.7957 C.3       1 <0>        -0.1894
     17 C13        -1.9521   -0.4980    7.2738 C.2       1 <0>         0.4879
     18 O2         -1.4380    0.4051    7.9113 O.co2     1 <0>        -0.6994
     19 O3         -2.6814   -1.2999    7.8319 O.co2     1 <0>        -0.7080
     20 H2         -5.1724   -2.4798   -1.0469 H         1 <0>         0.0613
     21 H3         -5.6421   -1.1548    0.0450 H         1 <0>         0.0530
     22 H4         -4.4051   -0.8815   -1.2054 H         1 <0>         0.0598
     23 H5         -4.1334   -2.7571    1.1874 H         1 <0>         0.0747
     24 H6         -2.8963   -2.4837   -0.0629 H         1 <0>         0.0783
     25 H7         -3.4652    0.4925    2.8054 H         1 <0>         0.1188
     26 H8         -4.9862   -0.1599    2.1503 H         1 <0>         0.0654
     27 H9         -4.4684   -1.1581    4.3603 H         1 <0>         0.0797
     28 H10        -4.4283   -2.3911    3.0772 H         1 <0>         0.0627
     29 H11        -2.9073   -1.7387    3.7323 H         1 <0>         0.0725
     30 H12        -0.2484    1.3097    0.0788 H         1 <0>         0.0889
     31 H13        -0.7491    2.5452    1.2620 H         1 <0>         0.0610
     32 H14         1.2226    0.2614    1.7323 H         1 <0>         0.0644
     33 H15         1.6099    1.9966    1.6366 H         1 <0>         0.0710
     34 H16         1.4774    1.2682    3.9948 H         1 <0>         0.0649
     35 H17         0.1685    2.4149    3.6217 H         1 <0>         0.0629
     36 H18        -2.2075    1.5710    3.3548 H         1 <0>         0.0683
     37 H19        -2.4902   -0.1880    3.2959 H         1 <0>         0.1332
     38 H20         0.1938    0.4242    5.8959 H         1 <0>         0.0635
     39 H21        -1.2101    1.4639    5.5550 H         1 <0>         0.0611
     40 H22        -2.6263   -0.5485    5.2496 H         1 <0>         0.0612
     41 H23        -1.2224   -1.5882    5.5905 H         1 <0>         0.0535
@<TRIPOS>BOND
     1    1    2 1
     2    1   20 1
     3    1   21 1
     4    1   22 1
     5    2    3 1
     6    2   23 1
     7    2   24 1
     8    3    4 1
     9    3    6 am
    10    4    5 1
    11    4   25 1
    12    4   26 1
    13    5   27 1
    14    5   28 1
    15    5   29 1
    16    6    7 2
    17    6    8 am
    18    8   14 1
    19    8    9 1
    20    9   10 1
    21    9   30 1
    22    9   31 1
    23   10   11 1
    24   10   32 1
    25   10   33 1
    26   11   12 1
    27   11   34 1
    28   11   35 1
    29   12   13 1
    30   12   14 1
    31   12   15 1
    32   14   36 1
    33   14   37 1
    34   15   16 1
    35   15   38 1
    36   15   39 1
    37   16   17 1
    38   16   40 1
    39   16   41 1
    40   17   18 2
    41   17   19 1
@<TRIPOS>MOLECULE
ZINC50927446
   41    41     0     0     0
SMALL
USER_CHARGES

@<TRIPOS>ATOM
      1 C1         -4.5893   -1.4303   -0.7138 C.3       1 <0>        -0.1677
      2 C2         -3.7483   -1.9796    0.4403 C.3       1 <0>         0.1338
      3 N1         -3.2110   -0.8661    1.2262 N.am      1 <0>        -0.6334
      4 C3         -3.9094   -0.4172    2.4332 C.3       1 <0>         0.0666
      5 C4         -3.8885   -1.5334    3.4794 C.3       1 <0>        -0.1822
      6 C5         -2.0741   -0.2547    0.8387 C.2       1 <0>         0.7107
      7 O1         -1.6722   -0.3844   -0.3015 O.2       1 <0>        -0.5887
      8 N2         -1.3826    0.5004    1.7151 N.am      1 <0>        -0.6225
      9 C6         -0.2786    1.3555    1.2585 C.3       1 <0>         0.1292
     10 C7          0.9718    1.0273    2.0805 C.3       1 <0>        -0.1279
     11 C8          0.6477    1.1613    3.5702 C.3       1 <0>        -0.0893
     12 C9         -0.4525    0.1661    3.9461 C.3       1 <0>        -0.1300
     13 C10        -1.7226    0.4889    3.1445 C.3       1 <0>         0.0543
     14 C11         1.9036    0.8678    4.3934 C.3       1 <0>        -0.0868
     15 C12         1.6139    1.1225    5.8739 C.3       1 <0>        -0.1822
     16 C13         2.8508    0.8334    6.6848 C.2       1 <0>         0.4868
     17 O2          3.8696    0.4584    6.1299 O.co2     1 <0>        -0.6997
     18 O3          2.8328    0.9745    7.8957 O.co2     1 <0>        -0.7101
     19 H1         -4.9891   -2.2587   -1.2985 H         1 <0>         0.0606
     20 H2         -5.4119   -0.8375   -0.3139 H         1 <0>         0.0510
     21 H3         -3.9659   -0.8032   -1.3512 H         1 <0>         0.0655
     22 H4         -4.3717   -2.6067    1.0777 H         1 <0>         0.0751
     23 H5         -2.9257   -2.5724    0.0404 H         1 <0>         0.0737
     24 H6         -3.4115    0.4657    2.8339 H         1 <0>         0.1188
     25 H7         -4.9419   -0.1709    2.1852 H         1 <0>         0.0659
     26 H8         -4.3865   -2.4163    3.0787 H         1 <0>         0.0637
     27 H9         -2.8561   -1.7797    3.7274 H         1 <0>         0.0695
     28 H10        -4.4082   -1.1994    4.3775 H         1 <0>         0.0728
     29 H11        -0.0822    1.1662    0.2032 H         1 <0>         0.0892
     30 H12        -0.5447    2.4029    1.4006 H         1 <0>         0.0611
     31 H13         1.2895    0.0066    1.8676 H         1 <0>         0.0658
     32 H14         1.7716    1.7199    1.8184 H         1 <0>         0.0744
     33 H15         0.3065    2.1755    3.7778 H         1 <0>         0.0650
     34 H16        -0.1214   -0.8465    3.7157 H         1 <0>         0.0645
     35 H17        -0.6663    0.2458    5.0120 H         1 <0>         0.0787
     36 H18        -2.1041    1.4671    3.4373 H         1 <0>         0.0668
     37 H19        -2.4793   -0.2724    3.3340 H         1 <0>         0.1303
     38 H20         2.1943   -0.1734    4.2539 H         1 <0>         0.0578
     39 H21         2.7139    1.5184    4.0645 H         1 <0>         0.0592
     40 H22         1.3232    2.1637    6.0134 H         1 <0>         0.0535
     41 H23         0.8036    0.4718    6.2028 H         1 <0>         0.0562
@<TRIPOS>BOND
     1    1    2 1
     2    1   19 1
     3    1   20 1
     4    1   21 1
     5    2    3 1
     6    2   22 1
     7    2   23 1
     8    3    4 1
     9    3    6 am
    10    4    5 1
    11    4   24 1
    12    4   25 1
    13    5   26 1
    14    5   27 1
    15    5   28 1
    16    6    7 2
    17    6    8 am
    18    8   13 1
    19    8    9 1
    20    9   10 1
    21    9   29 1
    22    9   30 1
    23   10   11 1
    24   10   31 1
    25   10   32 1
    26   11   12 1
    27   11   14 1
    28   11   33 1
    29   12   13 1
    30   12   34 1
    31   12   35 1
    32   13   36 1
    33   13   37 1
    34   14   15 1
    35   14   38 1
    36   14   39 1
    37   15   16 1
    38   15   40 1
    39   15   41 1
    40   16   17 2
    41   16   18 1
@<TRIPOS>MOLECULE
ZINC61863621
   40    41     0     0     0
SMALL
USER_CHARGES

@<TRIPOS>ATOM
      1 C1         -0.2114    1.9852    0.8502 C.3       1 <0>        -0.1628
      2 C2         -0.1438    0.5274    0.3906 C.3       1 <0>         0.0901
      3 H1         -1.1499    0.1098    0.3509 H         1 <0>         0.1589
      4 C3          0.4970    0.4562   -0.9990 C.3       1 <0>        -0.1216
      5 C4          1.9535    0.9174   -0.9089 C.3       1 <0>        -0.1234
      6 C5          2.7277   -0.0124    0.0283 C.3       1 <0>        -0.1293
      7 C6          2.1121    0.0535    1.4296 C.3       1 <0>         0.1416
      8 H2          2.2479    1.0535    1.8417 H         1 <0>         0.0697
      9 N1          0.6747   -0.2484    1.3324 N.am      1 <0>        -0.5853
     10 C7          0.1201   -1.2170    2.0878 C.2       1 <0>         0.5788
     11 O1          0.7790   -1.7708    2.9454 O.2       1 <0>        -0.5332
     12 C8         -1.2937   -1.6068    1.8723 C.ar      1 <0>         0.0494
     13 C9         -1.9901   -2.2569    2.8901 C.ar      1 <0>        -0.1043
     14 C10        -3.3090   -2.6172    2.6824 C.ar      1 <0>        -0.0836
     15 C11        -3.8958   -2.3111    1.4463 C.ar      1 <0>        -0.0515
     16 C12        -3.1291   -1.6557    0.4739 C.ar      1 <0>         0.0881
     17 N2         -1.8807   -1.3269    0.7147 N.ar      1 <0>        -0.4453
     18 C13        -5.2961   -2.6732    1.1743 C.2       1 <0>        -0.1283
     19 C14        -5.8512   -2.3735   -0.0197 C.2       1 <0>        -0.1409
     20 C15        -7.2008   -2.7225   -0.2819 C.2       1 <0>         0.4979
     21 O2         -7.8626   -3.2956    0.5745 O.co2     1 <0>        -0.6898
     22 O3         -7.7043   -2.4507   -1.3647 O.co2     1 <0>        -0.6925
     23 C16         2.7931   -0.9723    2.3377 C.3       1 <0>        -0.1393
     24 H3          0.7954    2.4009    0.8892 H         1 <0>         0.0540
     25 H4         -0.8148    2.5600    0.1476 H         1 <0>         0.0666
     26 H5         -0.6631    2.0333    1.8410 H         1 <0>         0.0527
     27 H6          0.4624   -0.5705   -1.3634 H         1 <0>         0.0676
     28 H7         -0.0482    1.1047   -1.6847 H         1 <0>         0.0724
     29 H8          2.4048    0.8911   -1.9007 H         1 <0>         0.0622
     30 H9          1.9887    1.9354   -0.5210 H         1 <0>         0.0639
     31 H10         2.6721   -1.0347   -0.3458 H         1 <0>         0.0663
     32 H11         3.7702    0.3027    0.0738 H         1 <0>         0.0713
     33 H12        -1.5051   -2.4769    3.8296 H         1 <0>         0.1438
     34 H13        -3.8727   -3.1222    3.4529 H         1 <0>         0.1446
     35 H14        -3.5704   -1.4151   -0.4820 H         1 <0>         0.1679
     36 H15        -5.8797   -3.1786    1.9295 H         1 <0>         0.1350
     37 H16        -5.2677   -1.8681   -0.7749 H         1 <0>         0.1037
     38 H17         3.8734   -0.8326    2.2977 H         1 <0>         0.0435
     39 H18         2.4470   -0.8369    3.3624 H         1 <0>         0.0755
     40 H19         2.5442   -1.9784    2.0001 H         1 <0>         0.0656
@<TRIPOS>BOND
     1    1    2 1
     2    1   24 1
     3    1   25 1
     4    1   26 1
     5    2    3 1
     6    2    9 1
     7    2    4 1
     8    4    5 1
     9    4   27 1
    10    4   28 1
    11    5    6 1
    12    5   29 1
    13    5   30 1
    14    6    7 1
    15    6   31 1
    16    6   32 1
    17    7    8 1
    18    7    9 1
    19    7   23 1
    20    9   10 am
    21   10   11 2
    22   10   12 1
    23   12   17 ar
    24   12   13 ar
    25   13   14 ar
    26   13   33 1
    27   14   15 ar
    28   14   34 1
    29   15   16 ar
    30   15   18 1
    31   16   17 ar
    32   16   35 1
    33   18   19 2
    34   18   36 1
    35   19   20 1
    36   19   37 1
    37   20   21 2
    38   20   22 1
    39   23   38 1
    40   23   39 1
    41   23   40 1
@<TRIPOS>MOLECULE
ZINC62872909
   35    36     0     0     0
SMALL
USER_CHARGES

@<TRIPOS>ATOM
      1 C1         -0.0187    1.5258    0.0104 C.3       1 <0>        -0.1204
      2 C2          0.0021   -0.0041    0.0020 C.3       1 <0>        -0.1427
      3 C3          0.7218   -0.4982   -1.2549 C.3       1 <0>        -0.0888
      4 C4          2.1469    0.0591   -1.2812 C.3       1 <0>        -0.1364
      5 C5          2.9120   -0.4483   -0.0548 C.3       1 <0>         0.1236
      6 N1          2.1511   -0.1028    1.1536 N.pl3     1 <0>        -0.9916
      7 C6          0.7429   -0.5122    1.2429 C.3       1 <0>         0.1513
      8 S1          2.8673    0.7317    2.3918 S.o2      1 <0>         2.6862
      9 O1          2.1273    0.4296    3.5666 O.2       1 <0>        -0.9552
     10 O2          4.2641    0.4921    2.2885 O.2       1 <0>        -0.9666
     11 C7          2.6257    2.4475    2.0718 C.ar      1 <0>        -0.6715
     12 C8          3.5552    3.1493    1.3272 C.ar      1 <0>        -0.0218
     13 C9          3.3657    4.4954    1.0761 C.ar      1 <0>        -0.1440
     14 C10         2.2465    5.1396    1.5693 C.ar      1 <0>        -0.0676
     15 C11         1.3165    4.4376    2.3132 C.ar      1 <0>        -0.1391
     16 C12         1.5039    3.0905    2.5606 C.ar      1 <0>        -0.0122
     17 C13        -1.4115   -0.5263    0.0111 C.2       1 <0>         0.5061
     18 O3         -2.1740   -0.2375   -0.8954 O.co2     1 <0>        -0.6939
     19 O4         -1.7927   -1.2377    0.9249 O.co2     1 <0>        -0.6947
     20 H1          1.0039    1.9031    0.0027 H         1 <0>         0.0434
     21 H2         -0.5459    1.8868   -0.8726 H         1 <0>         0.0559
     22 H3         -0.5289    1.8773    0.9072 H         1 <0>         0.0417
     23 H4          0.7580   -1.5876   -1.2480 H         1 <0>         0.0555
     24 H5          0.1828   -0.1586   -2.1393 H         1 <0>         0.0666
     25 H6          2.6512   -0.2742   -2.1882 H         1 <0>         0.0674
     26 H7          2.1119    1.1484   -1.2631 H         1 <0>         0.0662
     27 H8          3.0265   -1.5305   -0.1176 H         1 <0>         0.0731
     28 H9          3.8939    0.0234   -0.0157 H         1 <0>         0.0817
     29 H10         0.2935   -0.0826    2.1382 H         1 <0>         0.0864
     30 H11         0.6805   -1.5996    1.2860 H         1 <0>         0.0783
     31 H12         4.4296    2.6460    0.9418 H         1 <0>         0.1361
     32 H13         4.0922    5.0438    0.4950 H         1 <0>         0.1289
     33 H14         2.0987    6.1914    1.3738 H         1 <0>         0.1273
     34 H15         0.4423    4.9410    2.6988 H         1 <0>         0.1313
     35 H16         0.7755    2.5412    3.1386 H         1 <0>         0.1396
@<TRIPOS>BOND
     1    1    2 1
     2    1   20 1
     3    1   21 1
     4    1   22 1
     5    2    7 1
     6    2    3 1
     7    2   17 1
     8    3    4 1
     9    3   23 1
    10    3   24 1
    11    4    5 1
    12    4   25 1
    13    4   26 1
    14    5    6 1
    15    5   27 1
    16    5   28 1
    17    6    7 1
    18    6    8 1
    19    7   29 1
    20    7   30 1
    21    8    9 2
    22    8   10 2
    23    8   11 1
    24   11   16 ar
    25   11   12 ar
    26   12   13 ar
    27   12   31 1
    28   13   14 ar
    29   13   32 1
    30   14   15 ar
    31   14   33 1
    32   15   16 ar
    33   15   34 1
    34   16   35 1
    35   17   18 2
    36   17   19 1
@<TRIPOS>MOLECULE
ZINC05224543
   19    19     0     0     0
SMALL
USER_CHARGES
5-(hydroxymethyl)tetrahydrofuran-2,4-diol
@<TRIPOS>ATOM
      1 C1          1.1532    3.0998    0.0030 C.3       1 <0>        -0.1788
      2 C2          2.2904    3.5307   -0.9653 C.3       1 <0>         0.0775
      3 H1          3.2469    3.5888   -0.4459 H         1 <0>         0.0834
      4 C3          2.2755    2.3585   -1.9785 C.3       1 <0>         0.0929
      5 H2          1.4989    2.5153   -2.7271 H         1 <0>         0.0903
      6 O1          1.9849    1.1897   -1.1957 O.3       1 <0>        -0.3803
      7 C4          1.2864    1.5618   -0.0018 C.3       1 <0>         0.2484
      8 H3          1.8498    1.2366    0.8728 H         1 <0>         0.0867
      9 O2         -0.0110    0.9628    0.0073 O.3       1 <0>        -0.5639
     10 C5          3.6417    2.2196   -2.6532 C.3       1 <0>         0.0807
     11 O3          3.5911    1.1679   -3.6193 O.3       1 <0>        -0.5651
     12 O4          1.9800    4.7695   -1.6063 O.3       1 <0>        -0.5498
     13 H4          0.1802    3.4062   -0.3811 H         1 <0>         0.1012
     14 H5          1.3205    3.5005    1.0028 H         1 <0>         0.0959
     15 H6          0.0021   -0.0041    0.0020 H         1 <0>         0.3889
     16 H7          3.8993    3.1558   -3.1484 H         1 <0>         0.0670
     17 H8          4.3961    1.9865   -1.9016 H         1 <0>         0.0536
     18 H9          4.4249    1.0232   -4.0872 H         1 <0>         0.3827
     19 H10         1.9778    5.5310   -1.0104 H         1 <0>         0.3887
@<TRIPOS>BOND
     1    1    7 1
     2    1    2 1
     3    1   13 1
     4    1   14 1
     5    2    3 1
     6    2    4 1
     7    2   12 1
     8    4    5 1
     9    4    6 1
    10    4   10 1
    11    6    7 1
    12    7    8 1
    13    7    9 1
    14    9   15 1
    15   10   11 1
    16   10   16 1
    17   10   17 1
    18   11   18 1
    19   12   19 1
@<TRIPOS>MOLECULE
ZINC08698312
    9     8     0     0     0
SMALL
USER_CHARGES
(2R)-2-chloro-2-fluoro-acetamide
@<TRIPOS>ATOM
      1 C1         -1.3296    1.9443    0.0189 C.3       1 <0>         0.1407
      2 H1         -1.4390    2.5058   -0.9089 H         1 <0>         0.1493
      3 C2         -0.0144    1.2086    0.0087 C.2       1 <0>         0.4937
      4 O1          0.0021   -0.0041    0.0020 O.2       1 <0>        -0.4950
      5 N1          1.1435    1.8983    0.0013 N.am      1 <0>        -0.8363
      6 F1         -1.3621    2.8263    1.1044 F         1 <0>        -0.1665
      7 Cl1        -2.6801    0.7590    0.1670 Cl        1 <0>        -0.1090
      8 H2          1.9900    1.4248   -0.0093 H         1 <0>         0.4148
      9 H3          1.1304    2.8682    0.0067 H         1 <0>         0.4084
@<TRIPOS>BOND
     1    1    2 1
     2    1    3 1
     3    1    6 1
     4    1    7 1
     5    3    4 2
     6    3    5 am
     7    5    8 1
     8    5    9 1
@<TRIPOS>MOLECULE
ZINC17176641
   13    13     0     0     0
SMALL
USER_CHARGES
2-(5-amino-1,3,4-oxadiazol-2-yl)acetonitrile
@<TRIPOS>ATOM
      1 C1         -0.0179    1.4678    0.0101 C.3       1 <0>         0.0887
      2 C2          0.0021   -0.0041    0.0020 C.1       1 <0>         0.2001
      3 N1          0.0175   -1.1399   -0.0042 N.1       1 <0>        -0.4039
      4 C3          1.3959    1.9894   -0.0006 C.2       1 <0>         0.1169
      5 N2          2.1088    2.2557   -1.0554 N.2       1 <0>        -0.2341
      6 N3          3.2666    2.6857   -0.6951 N.2       1 <0>        -0.3556
      7 C4          3.3360    2.6996    0.6137 C.2       1 <0>         0.4425
      8 O1          2.1532    2.2591    1.0808 O.3       1 <0>        -0.2482
      9 N4          4.4220    3.0939    1.3730 N.pl3     1 <0>        -0.8180
     10 H1         -0.5499    1.8322   -0.8811 H         1 <0>         0.1586
     11 H2         -0.5328    1.8226    0.9151 H         1 <0>         0.1435
     12 H3          4.3655    3.0632    2.4711 H         1 <0>         0.4448
     13 H4          5.3425    3.4383    0.8790 H         1 <0>         0.4647
@<TRIPOS>BOND
     1    1    2 1
     2    1    4 1
     3    1   10 1
     4    1   11 1
     5    2    3 3
     6    4    8 1
     7    4    5 2
     8    5    6 1
     9    6    7 2
    10    7    8 1
    11    7    9 1
    12    9   12 1
    13    9   13 1
@<TRIPOS>MOLECULE
ZINC39053332
   17    17     0     0     0
SMALL
USER_CHARGES

@<TRIPOS>ATOM
      1 C1         -0.0184    1.5028    0.0103 C.3       1 <0>        -0.0953
      2 C2          0.0021   -0.0041    0.0020 C.ar      1 <0>        -0.2569
      3 C3          0.0061   -0.7056   -1.1934 C.ar      1 <0>         0.1939
      4 N1          0.0247   -2.0279   -1.1655 N.ar      1 <0>        -0.5693
      5 C4          0.0393   -2.6809   -0.0127 C.ar      1 <0>         0.5621
      6 N2          0.0585   -4.0648   -0.0203 N.pl3     1 <0>        -0.5487
      7 N3          0.0738   -4.7541    1.1589 N.3       1 <0>        -0.5898
      8 N4          0.0364   -2.0405    1.1472 N.ar      1 <0>        -0.5509
      9 C5          0.0231   -0.7185    1.1896 C.ar      1 <0>         0.1914
     10 H1          1.0042    1.8801    0.0026 H         1 <0>         0.0690
     11 H2         -0.5455    1.8639   -0.8728 H         1 <0>         0.0679
     12 H3         -0.5286    1.8543    0.9071 H         1 <0>         0.0681
     13 H4         -0.0061   -0.1789   -2.1362 H         1 <0>         0.1683
     14 H5          0.0869   -5.7497    0.9955 H         1 <0>         0.3598
     15 H6          0.8540   -4.4716    1.7328 H         1 <0>         0.3458
     16 H7          0.0246   -0.2020    2.1381 H         1 <0>         0.1673
     17 H8          0.0612   -4.5451   -0.8630 H         1 <0>         0.4174
@<TRIPOS>BOND
     1    1    2 1
     2    1   10 1
     3    1   11 1
     4    1   12 1
     5    2    9 ar
     6    2    3 ar
     7    3    4 ar
     8    3   13 1
     9    4    5 ar
    10    5    6 1
    11    5    8 ar
    12    6    7 1
    13    6   17 1
    14    7   14 1
    15    7   15 1
    16    8    9 ar
    17    9   16 1
@<TRIPOS>MOLECULE
ZINC39957347
   17    17     0     0     0
SMALL
USER_CHARGES

@<TRIPOS>ATOM
      1 C1         -0.0184    1.5028    0.0103 C.3       1 <0>        -0.1125
      2 C2          0.0021   -0.0041    0.0020 C.ar      1 <0>         0.1792
      3 C3          0.0059   -0.7000   -1.1968 C.ar      1 <0>        -0.2033
      4 C4          0.0249   -2.0849   -1.1549 C.ar      1 <0>         0.1722
      5 N1          0.0386   -2.6933    0.0204 N.ar      1 <0>        -0.5249
      6 C5          0.0344   -1.9987    1.1402 C.ar      1 <0>         0.2953
      7 N2          0.0221   -0.6807    1.1390 N.ar      1 <0>        -0.5198
      8 C6         -0.0106    0.0320   -2.5140 C.3       1 <0>         0.1289
      9 O1         -0.0026   -0.9141   -3.5849 O.3       1 <0>        -0.5711
     10 H1          1.0042    1.8801    0.0026 H         1 <0>         0.0889
     11 H2         -0.5455    1.8639   -0.8728 H         1 <0>         0.0805
     12 H3         -0.5286    1.8543    0.9071 H         1 <0>         0.0867
     13 H4          0.0281   -2.6602   -2.0690 H         1 <0>         0.1765
     14 H5          0.0455   -2.5233    2.0842 H         1 <0>         0.1984
     15 H6         -0.9095    0.6453   -2.5776 H         1 <0>         0.0671
     16 H7          0.8703    0.6700   -2.5863 H         1 <0>         0.0671
     17 H8         -0.0125   -0.5126   -4.4646 H         1 <0>         0.3906
@<TRIPOS>BOND
     1    1    2 1
     2    1   10 1
     3    1   11 1
     4    1   12 1
     5    2    7 ar
     6    2    3 ar
     7    3    4 ar
     8    3    8 1
     9    4    5 ar
    10    4   13 1
    11    5    6 ar
    12    6    7 ar
    13    6   14 1
    14    8    9 1
    15    8   15 1
    16    8   16 1
    17    9   17 1
@<TRIPOS>MOLECULE
ZINC20086496
   30    33     0     0     0
SMALL
USER_CHARGES
methyl-(3-thienyl)BLAHone
@<TRIPOS>ATOM
      1 C1          3.3893   -0.3123   -3.1084 C.3       1 <0>        -0.0809
      2 C2          4.1986    0.8425   -2.5769 C.2       1 <0>         0.1140
      3 C3          4.3286    1.1977   -1.2392 C.2       1 <0>        -0.2512
      4 C4          5.1459    2.2934   -1.1754 C.2       1 <0>         0.3022
      5 N1          5.5066    2.6110   -2.4349 N.pl3     1 <0>        -0.4853
      6 H1          6.1669    3.4716   -2.6175 H         1 <0>         0.4682
      7 N2          4.8998    1.6845   -3.2975 N.2       1 <0>        -0.2701
      8 N3          5.4978    2.9155    0.0281 N.pl3     1 <0>        -0.6182
      9 C5          5.1540    2.2363    1.1676 C.2       1 <0>         0.1784
     10 C6          4.3474    1.1455    1.1996 C.2       1 <0>        -0.2995
     11 C7          3.7089    0.5368   -0.0310 C.3       1 <0>         0.1395
     12 H2          3.8713   -0.5508   -0.0585 H         1 <0>         0.0909
     13 C8          2.2234    0.7899   -0.0149 C.2       1 <0>        -0.1031
     14 C9          1.3319   -0.2664   -0.0121 C.2       1 <0>        -0.1427
     15 C10         0.0021   -0.0041    0.0020 C.2       1 <0>        -0.1691
     16 S1         -0.0221    1.7810    0.0118 S.3       1 <0>         0.0213
     17 C11         1.7416    2.0568   -0.0035 C.2       1 <0>        -0.1617
     18 C12         4.2193    0.7058    2.5263 C.2       1 <0>         0.5208
     19 O1          3.5608   -0.2576    2.8723 O.2       1 <0>        -0.4574
     20 O2          4.9217    1.4918    3.3670 O.3       1 <0>        -0.3177
     21 C13         5.5627    2.5127    2.5873 C.3       1 <0>         0.0824
     22 H3          2.9106   -0.8408   -2.2708 H         1 <0>         0.0818
     23 H4          4.0506   -1.0053   -3.6492 H         1 <0>         0.0797
     24 H5          2.6161    0.0663   -3.7931 H         1 <0>         0.0798
     25 H6          6.0156    3.8859    0.0148 H         1 <0>         0.4531
     26 H7          1.6894   -1.2854   -0.0206 H         1 <0>         0.1355
     27 H8         -0.8275   -0.6955    0.0065 H         1 <0>         0.1855
     28 H9          2.2840    2.9908   -0.0040 H         1 <0>         0.1702
     29 H10         6.6582    2.4581    2.6707 H         1 <0>         0.1275
     30 H11         5.2225    3.5176    2.8778 H         1 <0>         0.1260
@<TRIPOS>BOND
     1    1    2 1
     2    1   22 1
     3    1   23 1
     4    1   24 1
     5    2    7 2
     6    2    3 1
     7    3   11 1
     8    3    4 2
     9    4    5 1
    10    4    8 1
    11    5    6 1
    12    5    7 1
    13    8    9 1
    14    8   25 1
    15    9   21 1
    16    9   10 2
    17   10   11 1
    18   10   18 1
    19   11   12 1
    20   11   13 1
    21   13   17 2
    22   13   14 1
    23   14   15 2
    24   14   26 1
    25   15   16 1
    26   15   27 1
    27   16   17 1
    28   17   28 1
    29   18   19 2
    30   18   20 1
    31   20   21 1
    32   21   29 1
    33   21   30 1
@<TRIPOS>MOLECULE
ZINC38053305
   30    32     0     0     0
SMALL
USER_CHARGES

@<TRIPOS>ATOM
      1 C1         -0.0167    1.3777    0.0096 C.ar      1 <0>        -0.1418
      2 C2          1.1755    2.0893    0.0021 C.ar      1 <0>         0.1879
      3 C3          2.3869    1.4111   -0.0137 C.ar      1 <0>        -0.1419
      4 C4          2.4040    0.0304   -0.0233 C.ar      1 <0>        -0.0949
      5 C5          1.2120   -0.6804   -0.0168 C.ar      1 <0>         0.1165
      6 C6          0.0021   -0.0041    0.0020 C.ar      1 <0>        -0.1577
      7 C7         -1.2988   -0.7666    0.0184 C.3       1 <0>         0.1018
      8 O1         -1.0567   -2.1238   -0.3640 O.3       1 <0>        -0.3837
      9 C8          0.0391   -2.7183    0.3419 C.3       1 <0>         0.2233
     10 O2          1.2428   -2.0410   -0.0311 O.3       1 <0>        -0.3158
     11 C9          3.7189   -0.7057   -0.0413 C.3       1 <0>         0.1862
     12 N1          4.0726   -1.0399   -1.4231 N.pl3     1 <0>        -0.3569
     13 C10         5.2273   -0.7217   -2.0468 C.2       1 <0>         0.0668
     14 C11         5.1628   -1.2097   -3.3079 C.2       1 <0>        -0.1873
     15 C12         3.9267   -1.8477   -3.4596 C.2       1 <0>         0.0547
     16 N2          3.2751   -1.7512   -2.3289 N.2       1 <0>        -0.2538
     17 Cl1         6.3954   -1.0686   -4.5222 Cl        1 <0>        -0.0453
     18 N3          1.1561    3.4885    0.0098 N.pl3     1 <0>        -0.8791
     19 H1         -0.9594    1.9044    0.0259 H         1 <0>         0.1283
     20 H2          3.3152    1.9631   -0.0187 H         1 <0>         0.1289
     21 H3         -1.7225   -0.7415    1.0224 H         1 <0>         0.0732
     22 H4         -1.9970   -0.3100   -0.6831 H         1 <0>         0.1138
     23 H5         -0.1200   -2.6184    1.4156 H         1 <0>         0.0593
     24 H6          0.1158   -3.7729    0.0772 H         1 <0>         0.1406
     25 H7          4.4952   -0.0735    0.3897 H         1 <0>         0.1071
     26 H8          3.6305   -1.6218    0.5428 H         1 <0>         0.1014
     27 H9          6.0538   -0.1753   -1.6169 H         1 <0>         0.1812
     28 H10         3.5733   -2.3390   -4.3541 H         1 <0>         0.1888
     29 H11         0.3095    3.9618    0.0205 H         1 <0>         0.3993
     30 H12         1.9893    3.9851    0.0045 H         1 <0>         0.3991
@<TRIPOS>BOND
     1    1    6 ar
     2    1    2 ar
     3    1   19 1
     4    2    3 ar
     5    2   18 1
     6    3    4 ar
     7    3   20 1
     8    4    5 ar
     9    4   11 1
    10    5   10 1
    11    5    6 ar
    12    6    7 1
    13    7    8 1
    14    7   21 1
    15    7   22 1
    16    8    9 1
    17    9   10 1
    18    9   23 1
    19    9   24 1
    20   11   12 1
    21   11   25 1
    22   11   26 1
    23   12   16 1
    24   12   13 1
    25   13   14 2
    26   13   27 1
    27   14   15 1
    28   14   17 1
    29   15   16 2
    30   15   28 1
    31   18   29 1
    32   18   30 1
@<TRIPOS>MOLECULE
ZINC42614827
   41    43     0     0     0
SMALL
USER_CHARGES

@<TRIPOS>ATOM
      1 C1         -0.3592    1.9692    0.4633 C.3       1 <0>        -0.1772
      2 C2         -0.2182    0.4944    0.1873 C.2       1 <0>         0.5008
      3 O1          0.8822    0.0097    0.0285 O.2       1 <0>        -0.5448
      4 N1         -1.3148   -0.2859    0.1170 N.am      1 <0>        -0.6032
      5 C3         -1.1205   -1.7114   -0.1475 C.3       1 <0>         0.1210
      6 C4         -1.1595   -2.4438    1.1785 C.3       1 <0>        -0.1492
      7 C5         -2.6024   -2.7947    1.5510 C.3       1 <0>         0.1237
      8 N2         -3.5434   -1.7039    1.2549 N.pl3     1 <0>        -0.6032
      9 C6         -3.2624   -0.3087    1.5450 C.3       1 <0>         0.1204
     10 C7         -2.5801    0.3321    0.3106 C.3       1 <0>         0.0859
     11 C8         -4.7602   -2.0235    0.6686 C.ar      1 <0>         0.4014
     12 C9         -5.1561   -3.3670    0.6021 C.ar      1 <0>        -0.2032
     13 C10        -6.3480   -3.6954    0.0299 C.ar      1 <0>        -0.0402
     14 C11        -7.1524   -2.6565   -0.4824 C.ar      1 <0>        -0.0934
     15 C12        -8.3911   -2.9265   -1.0836 C.ar      1 <0>        -0.1839
     16 C13        -9.1493   -1.8848   -1.5723 C.ar      1 <0>         0.1983
     17 C14        -8.6929   -0.5657   -1.4734 C.ar      1 <0>        -0.1423
     18 C15        -7.4957   -0.2812   -0.8947 C.ar      1 <0>        -0.0672
     19 C16        -6.6967   -1.3194   -0.3850 C.ar      1 <0>         0.1346
     20 N3         -5.5179   -1.0575    0.1929 N.ar      1 <0>        -0.5315
     21 N4        -10.3840   -2.1479   -2.1721 N.pl3     1 <0>        -0.8792
     22 H1          0.6279    2.4311    0.4832 H         1 <0>         0.0918
     23 H2         -0.9602    2.4297   -0.3208 H         1 <0>         0.0892
     24 H3         -0.8472    2.1134    1.4272 H         1 <0>         0.0892
     25 H4         -1.9175   -2.0781   -0.7944 H         1 <0>         0.0739
     26 H5         -0.1543   -1.8688   -0.6269 H         1 <0>         0.0926
     27 H6         -0.5739   -3.3599    1.1019 H         1 <0>         0.0884
     28 H7         -0.7311   -1.8089    1.9540 H         1 <0>         0.0718
     29 H8         -2.9045   -3.6816    0.9939 H         1 <0>         0.0826
     30 H9         -2.6467   -3.0186    2.6169 H         1 <0>         0.0630
     31 H10        -4.1940    0.2143    1.7611 H         1 <0>         0.0938
     32 H11        -2.5955   -0.2414    2.4045 H         1 <0>         0.0718
     33 H12        -2.4439    1.3997    0.4826 H         1 <0>         0.0971
     34 H13        -3.2024    0.1765   -0.5707 H         1 <0>         0.0768
     35 H14        -4.5173   -4.1399    1.0033 H         1 <0>         0.1344
     36 H15        -6.6685   -4.7250   -0.0301 H         1 <0>         0.1359
     37 H16        -8.7474   -3.9430   -1.1630 H         1 <0>         0.1228
     38 H17        -9.3002    0.2380   -1.8626 H         1 <0>         0.1269
     39 H18        -7.1585    0.7426   -0.8269 H         1 <0>         0.1338
     40 H19       -10.7040   -3.0609   -2.2431 H         1 <0>         0.3987
     41 H20       -10.9209   -1.4176   -2.5175 H         1 <0>         0.3981
@<TRIPOS>BOND
     1    1    2 1
     2    1   22 1
     3    1   23 1
     4    1   24 1
     5    2    3 2
     6    2    4 am
     7    4   10 1
     8    4    5 1
     9    5    6 1
    10    5   25 1
    11    5   26 1
    12    6    7 1
    13    6   27 1
    14    6   28 1
    15    7    8 1
    16    7   29 1
    17    7   30 1
    18    8    9 1
    19    8   11 1
    20    9   10 1
    21    9   31 1
    22    9   32 1
    23   10   33 1
    24   10   34 1
    25   11   20 ar
    26   11   12 ar
    27   12   13 ar
    28   12   35 1
    29   13   14 ar
    30   13   36 1
    31   14   19 ar
    32   14   15 ar
    33   15   16 ar
    34   15   37 1
    35   16   17 ar
    36   16   21 1
    37   17   18 ar
    38   17   38 1
    39   18   19 ar
    40   18   39 1
    41   19   20 ar
    42   21   40 1
    43   21   41 1
@<TRIPOS>MOLECULE
ZINC50706884
   33    35     0     0     0
SMALL
USER_CHARGES

@<TRIPOS>ATOM
      1 C1          0.0561    1.5270   -0.0525 C.3       1 <0>        -0.1361
      2 C2         -0.2000    0.0384    0.1916 C.3       1 <0>         0.2068
      3 H1          0.0672   -0.5327   -0.6975 H         1 <0>         0.0877
      4 C3         -1.6737   -0.1848    0.5264 C.2       1 <0>        -0.1371
      5 C4         -2.7172    0.3697   -0.2130 C.2       1 <0>        -0.1420
      6 C5         -4.0002    0.1257    0.1394 C.2       1 <0>        -0.1739
      7 S1         -3.7955   -0.9254    1.5694 S.3       1 <0>         0.0386
      8 C6         -2.0224   -0.9574    1.5909 C.2       1 <0>        -0.1406
      9 C7         -1.1184   -1.6605    2.5505 C.3       1 <0>        -0.0584
     10 C8          0.2904   -1.7276    1.9410 C.3       1 <0>         0.0808
     11 N1          0.5966   -0.4222    1.3369 N.am      1 <0>        -0.5910
     12 C9          1.5929    0.3412    1.8277 C.2       1 <0>         0.5865
     13 O1          1.7695    1.4628    1.3935 O.2       1 <0>        -0.5219
     14 C10         2.4712   -0.1855    2.8942 C.ar      1 <0>        -0.0334
     15 C11         3.2165    0.6948    3.6888 C.ar      1 <0>        -0.0219
     16 C12         4.0233    0.1553    4.6739 C.ar      1 <0>        -0.1837
     17 C13         4.0456   -1.2333    4.8160 C.ar      1 <0>         0.3624
     18 N2          3.3048   -1.9929    4.0165 N.ar      1 <0>        -0.3100
     19 N3          2.5514   -1.4937    3.1049 N.ar      1 <0>        -0.1610
     20 N4          4.8392   -1.8182    5.7889 N.pl3     1 <0>        -0.8282
     21 H2          1.0905    1.6713   -0.3643 H         1 <0>         0.0838
     22 H3         -0.6127    1.8873   -0.8341 H         1 <0>         0.0502
     23 H4         -0.1270    2.0827    0.8671 H         1 <0>         0.0670
     24 H5         -2.5014    0.9946   -1.0670 H         1 <0>         0.1342
     25 H6         -4.9113    0.4757   -0.3231 H         1 <0>         0.1874
     26 H7         -1.0842   -1.1102    3.4908 H         1 <0>         0.0836
     27 H8         -1.4883   -2.6702    2.7284 H         1 <0>         0.0948
     28 H9          1.0180   -1.9510    2.7213 H         1 <0>         0.1501
     29 H10         0.3228   -2.5023    1.1750 H         1 <0>         0.0806
     30 H11         3.1630    1.7627    3.5366 H         1 <0>         0.1617
     31 H12         4.6188    0.7894    5.3141 H         1 <0>         0.1553
     32 H13         5.3800   -1.2630    6.3720 H         1 <0>         0.4147
     33 H14         4.8541   -2.7831    5.8870 H         1 <0>         0.4132
@<TRIPOS>BOND
     1    1    2 1
     2    1   21 1
     3    1   22 1
     4    1   23 1
     5    2    3 1
     6    2   11 1
     7    2    4 1
     8    4    8 2
     9    4    5 1
    10    5    6 2
    11    5   24 1
    12    6    7 1
    13    6   25 1
    14    7    8 1
    15    8    9 1
    16    9   10 1
    17    9   26 1
    18    9   27 1
    19   10   11 1
    20   10   28 1
    21   10   29 1
    22   11   12 am
    23   12   13 2
    24   12   14 1
    25   14   19 ar
    26   14   15 ar
    27   15   16 ar
    28   15   30 1
    29   16   17 ar
    30   16   31 1
    31   17   18 ar
    32   17   20 1
    33   18   19 ar
    34   20   32 1
    35   20   33 1
@<TRIPOS>MOLECULE
ZINC44892965
   30    32     0     0     0
SMALL
USER_CHARGES

@<TRIPOS>ATOM
      1 C1          0.4873    1.7536   -0.2856 C.3       1 <0>        -0.1066
      2 C2          0.5490    0.2539   -0.1501 C.2       1 <0>         0.1207
      3 C3          0.2265   -0.6771   -1.1600 C.2       1 <0>        -0.2520
      4 C4          0.4093   -1.9156   -0.6524 C.2       1 <0>         0.3439
      5 N1          0.8321   -1.7621    0.6411 N.pl3     1 <0>        -0.4948
      6 H1          1.0424   -2.4798    1.2588 H         1 <0>         0.4436
      7 N2          0.9141   -0.3975    0.9166 N.2       1 <0>        -0.2619
      8 N3          0.2486   -3.1652   -1.2021 N.am      1 <0>        -0.6275
      9 C5         -0.1694   -3.6172   -2.3461 C.2       1 <0>         0.5414
     10 O1         -0.2644   -4.8245   -2.4133 O.2       1 <0>        -0.5252
     11 C6         -0.5481   -2.8945   -3.5787 C.3       1 <0>        -0.1246
     12 S1         -1.4298   -1.3621   -3.2511 S.3       1 <0>        -0.1737
     13 C7         -0.2292   -0.2467   -2.5190 C.3       1 <0>         0.0597
     14 H2          0.6384   -0.1863   -3.1760 H         1 <0>         0.1043
     15 C8         -0.8458    1.1241   -2.4107 C.ar      1 <0>        -0.1102
     16 C9         -0.2143    2.2242   -2.9710 C.ar      1 <0>        -0.0620
     17 C10        -0.8182    3.4659   -2.8467 C.ar      1 <0>        -0.1684
     18 C11        -2.0212    3.5653   -2.1733 C.ar      1 <0>         0.1029
     19 N4         -2.5930    2.4974   -1.6526 N.ar      1 <0>        -0.4772
     20 C12        -2.0503    1.2998   -1.7568 C.ar      1 <0>         0.1210
     21 H3          1.3769    2.1083   -0.8059 H         1 <0>         0.0827
     22 H4         -0.4007    2.0308   -0.8537 H         1 <0>         0.0978
     23 H5          0.4409    2.2063    0.7049 H         1 <0>         0.0757
     24 H6          0.5082   -3.8750   -0.5941 H         1 <0>         0.4065
     25 H7          0.3558   -2.6655   -4.1430 H         1 <0>         0.1262
     26 H8         -1.1825   -3.5419   -4.1842 H         1 <0>         0.1580
     27 H9          0.7259    2.1164   -3.4915 H         1 <0>         0.1398
     28 H10        -0.3545    4.3444   -3.2704 H         1 <0>         0.1418
     29 H11        -2.4982    4.5290   -2.0721 H         1 <0>         0.1603
     30 H12        -2.5509    0.4473   -1.3219 H         1 <0>         0.1576
@<TRIPOS>BOND
     1    1    2 1
     2    1   21 1
     3    1   22 1
     4    1   23 1
     5    2    7 2
     6    2    3 1
     7    3   13 1
     8    3    4 2
     9    4    5 1
    10    4    8 1
    11    5    6 1
    12    5    7 1
    13    8    9 am
    14    8   24 1
    15    9   10 2
    16    9   11 1
    17   11   12 1
    18   11   25 1
    19   11   26 1
    20   12   13 1
    21   13   14 1
    22   13   15 1
    23   15   20 ar
    24   15   16 ar
    25   16   17 ar
    26   16   27 1
    27   17   18 ar
    28   17   28 1
    29   18   19 ar
    30   18   29 1
    31   19   20 ar
    32   20   30 1
@<TRIPOS>MOLECULE
ZINC02194381
   26    27     0     0     0
SMALL
USER_CHARGES
N'-(3,3-dioxo-3$l^{6},6-dithia-8-azabicyclo[3.3.0]oct-7-en-7-yl)acetohydrazide
@<TRIPOS>ATOM
      1 C1         -0.0127    1.0858    0.0080 C.3       1 <0>        -0.1605
      2 C2         -0.7181    1.5718    1.2479 C.2       1 <0>         0.5136
      3 O1         -1.9164    1.7578    1.2303 O.2       1 <0>        -0.5410
      4 N1         -0.0172    1.7998    2.3763 N.am      1 <0>        -0.5167
      5 N2         -0.6730    2.2516    3.5290 N.pl3     1 <0>        -0.4699
      6 C3          0.0423    2.4843    4.6808 C.2       1 <0>         0.4225
      7 N3          1.3496    2.3313    4.8659 N.2       1 <0>        -0.5910
      8 C4          1.8994    2.7838    6.1239 C.3       1 <0>         0.0918
      9 H1          2.0134    3.8668    6.0780 H         1 <0>         0.1055
     10 C5          3.2072    2.1843    6.6607 C.3       1 <0>        -0.5437
     11 S1          3.0483    2.5916    8.4612 S.o2      1 <0>         2.3639
     12 O2          3.1292    1.3912    9.2174 O.2       1 <0>        -0.9164
     13 O3          3.9147    3.6747    8.7702 O.2       1 <0>        -0.9166
     14 C6          1.2907    3.1980    8.4709 C.3       1 <0>        -0.5312
     15 C7          0.8220    2.4827    7.2333 C.3       1 <0>        -0.1315
     16 H2          0.7546    1.4105    7.4178 H         1 <0>         0.1306
     17 S2         -0.5882    3.0700    6.2637 S.3       1 <0>        -0.1046
     18 H3          0.0021   -0.0041    0.0020 H         1 <0>         0.1037
     19 H4          1.0099    1.4631    0.0003 H         1 <0>         0.0877
     20 H5         -0.5399    1.4469   -0.8751 H         1 <0>         0.1058
     21 H6          0.9412    1.6510    2.3904 H         1 <0>         0.4353
     22 H7         -1.6314    2.4003    3.5149 H         1 <0>         0.4533
     23 H8          3.2418    1.1065    6.5015 H         1 <0>         0.1479
     24 H9          4.0758    2.6736    6.2199 H         1 <0>         0.1526
     25 H10         0.7533    2.8632    9.3582 H         1 <0>         0.1550
     26 H11         1.2369    4.2807    8.3568 H         1 <0>         0.1537
@<TRIPOS>BOND
     1    1    2 1
     2    1   18 1
     3    1   19 1
     4    1   20 1
     5    2    3 2
     6    2    4 am
     7    4    5 1
     8    4   21 1
     9    5    6 1
    10    5   22 1
    11    6   17 1
    12    6    7 2
    13    7    8 1
    14    8    9 1
    15    8   15 1
    16    8   10 1
    17   10   11 1
    18   10   23 1
    19   10   24 1
    20   11   12 2
    21   11   13 2
    22   11   14 1
    23   14   15 1
    24   14   25 1
    25   14   26 1
    26   15   16 1
    27   15   17 1
@<TRIPOS>MOLECULE
ZINC38095225
   33    34     0     0     0
SMALL
USER_CHARGES

@<TRIPOS>ATOM
      1 C1         -1.8256    0.7587   -0.4101 C.3       1 <0>        -0.1000
      2 C2         -0.8404   -0.3625   -0.2019 C.ar      1 <0>         0.1200
      3 C3         -0.0253   -0.7703   -1.2591 C.ar      1 <0>        -0.1371
      4 C4          0.8840   -1.8124   -1.0501 C.ar      1 <0>        -0.1300
      5 C5          0.9346   -2.3983    0.2101 C.ar      1 <0>         0.1608
      6 C6          0.0873   -1.9317    1.2081 C.ar      1 <0>         0.0584
      7 N1         -0.7543   -0.9430    0.9767 N.ar      1 <0>        -0.4408
      8 N2          1.8256   -3.4431    0.4695 N.pl3     1 <0>        -0.8666
      9 C7         -0.1220   -0.1114   -2.5792 C.2       1 <0>         0.5748
     10 O1         -0.0462    1.0990   -2.6613 O.2       1 <0>        -0.5067
     11 N3         -0.2942   -0.8529   -3.6914 N.am      1 <0>        -0.6237
     12 C8         -0.5231   -2.2938   -3.5731 C.3       1 <0>         0.1069
     13 C9         -1.9284   -2.6317   -4.0817 C.3       1 <0>        -0.6265
     14 S1         -2.0800   -2.0698   -5.8033 S.o2      1 <0>         2.4170
     15 O2         -3.4453   -2.1552   -6.1877 O.2       1 <0>        -0.9336
     16 O3         -1.0975   -2.7365   -6.5841 O.2       1 <0>        -0.9296
     17 C10        -1.6253   -0.3152   -5.6730 C.3       1 <0>        -0.6220
     18 C11        -0.2562   -0.2080   -5.0049 C.3       1 <0>         0.1185
     19 H1         -1.3220    1.7153   -0.2710 H         1 <0>         0.0848
     20 H2         -2.2296    0.7044   -1.4210 H         1 <0>         0.0682
     21 H3         -2.6377    0.6674    0.3111 H         1 <0>         0.0786
     22 H4          1.5294   -2.1531   -1.8462 H         1 <0>         0.1413
     23 H5          0.1214   -2.3828    2.1888 H         1 <0>         0.1600
     24 H6          2.4140   -3.7641   -0.2317 H         1 <0>         0.4028
     25 H7          1.8557   -3.8473    1.3508 H         1 <0>         0.4053
     26 H8          0.2170   -2.8293   -4.1677 H         1 <0>         0.1013
     27 H9         -0.4337   -2.5912   -2.5283 H         1 <0>         0.1163
     28 H10        -2.0848   -3.7094   -4.0342 H         1 <0>         0.1510
     29 H11        -2.6714   -2.1254   -3.4656 H         1 <0>         0.1389
     30 H12        -1.5828    0.1260   -6.6687 H         1 <0>         0.1515
     31 H13        -2.3658    0.2101   -5.0699 H         1 <0>         0.1394
     32 H14         0.0058    0.8434   -4.8860 H         1 <0>         0.1212
     33 H15         0.4895   -0.6997   -5.6296 H         1 <0>         0.0994
@<TRIPOS>BOND
     1    1    2 1
     2    1   19 1
     3    1   20 1
     4    1   21 1
     5    2    7 ar
     6    2    3 ar
     7    3    4 ar
     8    3    9 1
     9    4    5 ar
    10    4   22 1
    11    5    6 ar
    12    5    8 1
    13    6    7 ar
    14    6   23 1
    15    8   24 1
    16    8   25 1
    17    9   10 2
    18    9   11 am
    19   11   18 1
    20   11   12 1
    21   12   13 1
    22   12   26 1
    23   12   27 1
    24   13   14 1
    25   13   28 1
    26   13   29 1
    27   14   15 2
    28   14   16 2
    29   14   17 1
    30   17   18 1
    31   17   30 1
    32   17   31 1
    33   18   32 1
    34   18   33 1
@<TRIPOS>MOLECULE
ZINC40573594
   37    38     0     0     0
SMALL
USER_CHARGES

@<TRIPOS>ATOM
      1 C1         -0.0178    1.4648    0.0101 C.3       1 <0>        -0.0459
      2 N1          0.0021   -0.0041    0.0020 N.4       1 <0>        -0.3857
      3 C2          0.6815   -0.4760   -1.2105 C.3       1 <0>        -0.0001
      4 C3          0.6339   -2.0045   -1.2642 C.3       1 <0>        -0.1560
      5 C4          1.3359   -2.5754   -0.0287 C.3       1 <0>         0.1578
      6 C5          0.6658   -2.0178    1.2303 C.3       1 <0>        -0.1626
      7 C6          0.7122   -0.4888    1.1916 C.3       1 <0>        -0.0021
      8 N2          1.2277   -4.0364   -0.0351 N.am      1 <0>        -0.7486
      9 C7          2.1422   -4.7827    0.6154 C.2       1 <0>         0.7286
     10 O1          3.0570   -4.2435    1.2076 O.2       1 <0>        -0.5593
     11 N3          2.0426   -6.1268    0.6095 N.am      1 <0>        -0.5953
     12 C8          0.9494   -6.8228   -0.1034 C.3       1 <0>         0.1613
     13 S1          0.9157   -8.4422    0.7847 S.3       1 <0>        -0.3082
     14 C9          2.7154   -8.4857    1.2043 C.3       1 <0>        -0.0216
     15 C10         3.0072   -6.9676    1.2982 C.3       1 <0>         0.0691
     16 H1          3.0225   -6.6857    2.3509 H         1 <0>         0.0816
     17 C11         4.3728   -6.7022    0.7187 C.2       1 <0>         0.5002
     18 O2          5.3646   -7.1582    1.2617 O.co2     1 <0>        -0.6859
     19 O3          4.4858   -6.0314   -0.2932 O.co2     1 <0>        -0.6749
     20 H2          1.0047    1.8421    0.0024 H         1 <0>         0.1218
     21 H3         -0.5450    1.8259   -0.8730 H         1 <0>         0.1218
     22 H4         -0.5280    1.8163    0.9069 H         1 <0>         0.1221
     23 H5          0.1827   -0.0663   -2.0888 H         1 <0>         0.1335
     24 H6          1.7201   -0.1456   -1.1964 H         1 <0>         0.1328
     25 H7         -0.4044   -2.3361   -1.2786 H         1 <0>         0.0910
     26 H8          1.1404   -2.3531   -2.1643 H         1 <0>         0.1203
     27 H9          2.3869   -2.2866   -0.0407 H         1 <0>         0.1059
     28 H10        -0.3718   -2.3496    1.2677 H         1 <0>         0.0867
     29 H11         1.1951   -2.3758    2.1133 H         1 <0>         0.1191
     30 H12         1.7502   -0.1581    1.1545 H         1 <0>         0.1321
     31 H13         0.2361   -0.0886    2.0867 H         1 <0>         0.1312
     32 H14         0.4979   -4.4666   -0.5076 H         1 <0>         0.3936
     33 H15         0.0047   -6.2918    0.0137 H         1 <0>         0.0994
     34 H16         1.1926   -6.9586   -1.1571 H         1 <0>         0.0909
     35 H17         2.8879   -8.9847    2.1579 H         1 <0>         0.1212
     36 H18         3.2970   -8.9483    0.4069 H         1 <0>         0.1012
     37 H19        -0.9449   -0.3523    0.0117 H         1 <0>         0.4229
@<TRIPOS>BOND
     1    1    2 1
     2    1   20 1
     3    1   21 1
     4    1   22 1
     5    2    7 1
     6    2    3 1
     7    2   37 1
     8    3    4 1
     9    3   23 1
    10    3   24 1
    11    4    5 1
    12    4   25 1
    13    4   26 1
    14    5    6 1
    15    5    8 1
    16    5   27 1
    17    6    7 1
    18    6   28 1
    19    6   29 1
    20    7   30 1
    21    7   31 1
    22    8    9 am
    23    8   32 1
    24    9   10 2
    25    9   11 am
    26   11   15 1
    27   11   12 1
    28   12   13 1
    29   12   33 1
    30   12   34 1
    31   13   14 1
    32   14   15 1
    33   14   35 1
    34   14   36 1
    35   15   16 1
    36   15   17 1
    37   17   18 2
    38   17   19 1
@<TRIPOS>MOLECULE
ZINC49571543
   40    42     0     0     0
SMALL
USER_CHARGES

@<TRIPOS>ATOM
      1 C1         -0.0188    1.5323    0.0105 C.3       1 <0>        -0.1407
      2 C2          1.4577    1.9687   -0.0013 C.3       1 <0>        -0.1349
      3 C3          2.2420    0.7103    0.4217 C.3       1 <0>         0.0175
      4 H1          2.4262    0.6907    1.4958 H         1 <0>         0.1505
      5 C4          3.5551    0.6581   -0.3840 C.3       1 <0>         0.1597
      6 H2          3.6897    1.5815   -0.9473 H         1 <0>         0.1316
      7 C5          3.3935   -0.5391   -1.3481 C.3       1 <0>        -0.1606
      8 C6          1.8561   -0.7201   -1.4227 C.3       1 <0>         0.0052
      9 N1          1.4065   -0.4355   -0.0157 N.4       1 <0>        -0.3986
     10 C7          0.0021   -0.0041    0.0020 C.3       1 <0>        -0.0032
     11 N2          4.6929    0.4407    0.5128 N.am      1 <0>        -0.7513
     12 C8          5.9250    0.8483    0.1492 C.2       1 <0>         0.7246
     13 O1          6.0922    1.3965   -0.9231 O.2       1 <0>        -0.5688
     14 N3          6.9718    0.6482    0.9742 N.am      1 <0>        -0.5973
     15 C9          6.9128   -0.0060    2.2940 C.3       1 <0>         0.1022
     16 C10         8.3467   -0.5397    2.5365 C.3       1 <0>        -0.1309
     17 C11         9.2090    0.5897    1.9134 C.3       1 <0>        -0.1120
     18 C12         8.3628    1.0407    0.7043 C.3       1 <0>         0.0813
     19 H3          8.7171    0.5500   -0.2022 H         1 <0>         0.0696
     20 C13         8.4522    2.5370    0.5491 C.2       1 <0>         0.4979
     21 O2          7.6750    3.2597    1.1492 O.co2     1 <0>        -0.6892
     22 O3          9.3018    3.0248   -0.1766 O.co2     1 <0>        -0.6899
     23 H4         -0.5120    1.8972    0.9114 H         1 <0>         0.1026
     24 H5         -0.5291    1.9068   -0.8769 H         1 <0>         0.1042
     25 H6          1.7532    2.2814   -1.0028 H         1 <0>         0.1031
     26 H7          1.6208    2.7756    0.7131 H         1 <0>         0.1175
     27 H8          3.8019   -0.3011   -2.3303 H         1 <0>         0.1233
     28 H9          3.8674   -1.4310   -0.9381 H         1 <0>         0.1003
     29 H10         1.4176   -0.0060   -2.1196 H         1 <0>         0.1351
     30 H11         1.6018   -1.7416   -1.7053 H         1 <0>         0.1343
     31 H12        -0.4896   -0.3847    0.8973 H         1 <0>         0.1281
     32 H13        -0.5092   -0.3751   -0.8863 H         1 <0>         0.1301
     33 H14         4.5595    0.0034    1.3683 H         1 <0>         0.3931
     34 H15         6.6417    0.7165    3.0638 H         1 <0>         0.0679
     35 H16         6.1992   -0.8298    2.2775 H         1 <0>         0.0585
     36 H17         8.5499   -0.6435    3.6023 H         1 <0>         0.0814
     37 H18         8.5052   -1.4844    2.0163 H         1 <0>         0.0721
     38 H19         9.3433    1.4076    2.6213 H         1 <0>         0.0774
     39 H20        10.1727    0.2017    1.5834 H         1 <0>         0.0798
     40 H21         1.5533   -1.2350    0.5820 H         1 <0>         0.4284
@<TRIPOS>BOND
     1    1   10 1
     2    1    2 1
     3    1   23 1
     4    1   24 1
     5    2    3 1
     6    2   25 1
     7    2   26 1
     8    3    4 1
     9    3    9 1
    10    3    5 1
    11    5    6 1
    12    5    7 1
    13    5   11 1
    14    7    8 1
    15    7   27 1
    16    7   28 1
    17    8    9 1
    18    8   29 1
    19    8   30 1
    20    9   10 1
    21    9   40 1
    22   10   31 1
    23   10   32 1
    24   11   12 am
    25   11   33 1
    26   12   13 2
    27   12   14 am
    28   14   18 1
    29   14   15 1
    30   15   16 1
    31   15   34 1
    32   15   35 1
    33   16   17 1
    34   16   36 1
    35   16   37 1
    36   17   18 1
    37   17   38 1
    38   17   39 1
    39   18   19 1
    40   18   20 1
    41   20   21 2
    42   20   22 1
@<TRIPOS>MOLECULE
ZINC61844713
   33    35     0     0     0
SMALL
USER_CHARGES

@<TRIPOS>ATOM
      1 C1         -0.0155    1.2906    0.0091 C.2       1 <0>         0.2604
      2 N1          1.2746    1.7533   -0.0007 N.pl3     1 <0>        -0.6281
      3 H1          1.5447    2.6849    0.0017 H         1 <0>         0.4549
      4 C2          2.1100    0.6815   -0.0144 C.2       1 <0>         0.6177
      5 N2          1.3382   -0.4267   -0.0130 N.pl3     1 <0>        -0.4880
      6 N3          0.0021   -0.0041    0.0020 N.2       1 <0>        -0.2764
      7 N4          3.4440    0.7174   -0.0276 N.2       1 <0>        -0.6585
      8 C3          4.0764    1.8841   -0.0282 C.2       1 <0>         0.4996
      9 O1          3.4402    2.9208   -0.0166 O.2       1 <0>        -0.5724
     10 C4          5.5828    1.9247   -0.0431 C.3       1 <0>         0.1452
     11 H2          5.9584    1.4159   -0.9309 H         1 <0>         0.1027
     12 C5          6.1387    1.2450    1.2260 C.3       1 <0>        -0.1084
     13 C6          7.3516    2.1391    1.5961 C.3       1 <0>        -0.1356
     14 C7          6.8365    3.5438    1.1945 C.3       1 <0>         0.1007
     15 N5          6.0456    3.3201   -0.0332 N.am      1 <0>        -0.6050
     16 C8          5.7899    4.2392   -0.9852 C.2       1 <0>         0.5683
     17 O2          5.1252    3.9397   -1.9544 O.2       1 <0>        -0.5294
     18 C9          6.3301    5.6392   -0.8454 C.3       1 <0>        -0.1912
     19 C10         5.3227    6.7634   -0.5961 C.3       1 <0>        -0.1489
     20 C11         6.0052    6.6362   -1.9595 C.3       1 <0>        -0.1479
     21 H3         -0.9028    1.9061    0.0250 H         1 <0>         0.2416
     22 H4          5.3964    1.2525    2.0241 H         1 <0>         0.0771
     23 H5          6.4622    0.2272    1.0082 H         1 <0>         0.0950
     24 H6          7.5611    2.0905    2.6647 H         1 <0>         0.0893
     25 H7          8.2314    1.8645    1.0142 H         1 <0>         0.0817
     26 H8          6.2070    3.9567    1.9828 H         1 <0>         0.0704
     27 H9          7.6740    4.2103    0.9885 H         1 <0>         0.0810
     28 H10         7.3052    5.7211   -0.3653 H         1 <0>         0.1221
     29 H11         4.2693    6.4905   -0.5332 H         1 <0>         0.0995
     30 H12         5.6349    7.5852    0.0483 H         1 <0>         0.1040
     31 H13         6.7665    7.3743   -2.2121 H         1 <0>         0.1038
     32 H14         5.4009    6.2796   -2.7936 H         1 <0>         0.1069
     33 H15         1.6507   -1.3450   -0.0209 H         1 <0>         0.4680
@<TRIPOS>BOND
     1    1    6 2
     2    1    2 1
     3    1   21 1
     4    2    3 1
     5    2    4 1
     6    4    5 1
     7    4    7 2
     8    5    6 1
     9    5   33 1
    10    7    8 1
    11    8    9 2
    12    8   10 1
    13   10   11 1
    14   10   15 1
    15   10   12 1
    16   12   13 1
    17   12   22 1
    18   12   23 1
    19   13   14 1
    20   13   24 1
    21   13   25 1
    22   14   15 1
    23   14   26 1
    24   14   27 1
    25   15   16 am
    26   16   17 2
    27   16   18 1
    28   18   20 1
    29   18   19 1
    30   18   28 1
    31   19   20 1
    32   19   29 1
    33   19   30 1
    34   20   31 1
    35   20   32 1
@<TRIPOS>MOLECULE
ZINC04377525
   33    35     0     0     0
SMALL
USER_CHARGES
6-[(3,5-dichlorophenyl)carbamoyl]bicyclo[2.2.1]hept-2-ene-5-carboxylic acid
@<TRIPOS>ATOM
      1 C1          0.6144    2.8141    4.6141 C.ar      1 <0>        -0.1242
      2 C2          1.3925    2.9835    3.4765 C.ar      1 <0>         0.2072
      3 C3          2.2280    4.0873    3.3678 C.ar      1 <0>        -0.1156
      4 C4          2.2749    5.0201    4.3869 C.ar      1 <0>        -0.0069
      5 C5          1.4985    4.8490    5.5195 C.ar      1 <0>        -0.1335
      6 C6          0.6690    3.7472    5.6326 C.ar      1 <0>        -0.0035
      7 Cl1        -0.3035    3.5361    7.0551 Cl        1 <0>        -0.0643
      8 Cl2         3.3142    6.4038    4.2489 Cl        1 <0>        -0.0671
      9 N1          1.3390    2.0406    2.4441 N.am      1 <0>        -0.6658
     10 C7          1.4548    2.4384    1.1616 C.2       1 <0>         0.5515
     11 O1          1.6843    3.6015    0.9057 O.2       1 <0>        -0.5096
     12 C8          1.2990    1.4379    0.0454 C.3       1 <0>        -0.0982
     13 H1          2.0024    0.6145    0.1694 H         1 <0>         0.0903
     14 C9          1.4967    2.1245   -1.3435 C.3       1 <0>        -0.0507
     15 H2          2.5255    2.3346   -1.6361 H         1 <0>         0.0964
     16 C10         0.6691    1.1521   -2.2613 C.3       1 <0>        -0.1189
     17 C11        -0.6509    1.3416   -1.4277 C.3       1 <0>        -0.0635
     18 H3         -1.5506    0.8487   -1.7960 H         1 <0>         0.0939
     19 C12        -0.1547    0.9079   -0.0116 C.3       1 <0>        -0.1300
     20 H4         -0.1708   -0.1777    0.0842 H         1 <0>         0.0780
     21 C13        -0.9937    1.5458    1.0656 C.2       1 <0>         0.4625
     22 O2         -1.0716    2.7494    1.1374 O.co2     1 <0>        -0.6043
     23 C14        -0.6957    2.8728   -1.3545 C.2       1 <0>        -0.1292
     24 C15         0.5417    3.3239   -1.3059 C.2       1 <0>        -0.1545
     25 H5         -0.0327    1.9540    4.7032 H         1 <0>         0.1458
     26 H6          2.8378    4.2188    2.4862 H         1 <0>         0.1529
     27 H7          1.5402    5.5764    6.3167 H         1 <0>         0.1387
     28 H8          1.2187    1.1007    2.6514 H         1 <0>         0.4129
     29 H9          0.5746    1.5211   -3.2825 H         1 <0>         0.0740
     30 H10         1.0410    0.1281   -2.2271 H         1 <0>         0.0700
     31 H11        -1.5896    3.4787   -1.3441 H         1 <0>         0.1146
     32 H12         0.8337    4.3622   -1.2493 H         1 <0>         0.1191
     33 O3         -1.6546    0.7768    1.9451 O.co2     1 <0>        -0.7681
@<TRIPOS>BOND
     1    1    6 ar
     2    1    2 ar
     3    1   25 1
     4    2    3 ar
     5    2    9 1
     6    3    4 ar
     7    3   26 1
     8    4    5 ar
     9    4    8 1
    10    5    6 ar
    11    5   27 1
    12    6    7 1
    13    9   10 am
    14    9   28 1
    15   10   11 2
    16   10   12 1
    17   12   13 1
    18   12   19 1
    19   12   14 1
    20   14   15 1
    21   14   24 1
    22   14   16 1
    23   16   17 1
    24   16   29 1
    25   16   30 1
    26   17   18 1
    27   17   19 1
    28   17   23 1
    29   19   20 1
    30   19   21 1
    31   21   22 2
    32   21   33 1
    33   23   24 2
    34   23   31 1
    35   24   32 1
@<TRIPOS>MOLECULE
ZINC06263470
   46    47     0     0     0
SMALL
USER_CHARGES
3-(cyclohexylcarbamoyl)-2,2,3-trimethyl-cyclopentane-1-carboxylic acid
@<TRIPOS>ATOM
      1 C1          5.8503    5.2234   -3.5950 C.3       1 <0>        -0.1368
      2 C2          5.1418    5.3120   -2.2418 C.3       1 <0>        -0.0287
      3 C3          5.8978    6.2838   -1.3106 C.3       1 <0>        -0.1239
      4 H1          5.1985    6.8188   -0.6681 H         1 <0>         0.0684
      5 C4          6.8152    5.3647   -0.4664 C.3       1 <0>        -0.1076
      6 C5          5.9223    4.1231   -0.2208 C.3       1 <0>        -0.1057
      7 C6          5.1574    3.9387   -1.5477 C.3       1 <0>        -0.0788
      8 C7          5.8755    2.9144   -2.4287 C.3       1 <0>        -0.1354
      9 C8          3.7475    3.4836   -1.2719 C.2       1 <0>         0.5414
     10 O1          3.3427    3.4217   -0.1304 O.2       1 <0>        -0.5447
     11 N1          2.9365    3.1455   -2.2939 N.am      1 <0>        -0.7303
     12 C9          1.6036    2.6015   -2.0221 C.3       1 <0>         0.1442
     13 C10         1.7054    1.0917   -1.7960 C.3       1 <0>        -0.1284
     14 C11         0.3134    0.5236   -1.5122 C.3       1 <0>        -0.1165
     15 C12        -0.6033    0.7999   -2.7056 C.3       1 <0>        -0.1206
     16 C13        -0.7050    2.3097   -2.9318 C.3       1 <0>        -0.1152
     17 C14         0.6870    2.8778   -3.2156 C.3       1 <0>        -0.1275
     18 C15         6.7217    7.2555   -2.1156 C.2       1 <0>         0.4757
     19 O2          7.8642    6.9864   -2.4022 O.co2     1 <0>        -0.6389
     20 C16         3.6997    5.7854   -2.4346 C.3       1 <0>        -0.1465
     21 H2          5.3631    4.4679   -4.2114 H         1 <0>         0.0411
     22 H3          5.7985    6.1900   -4.0961 H         1 <0>         0.0632
     23 H4          6.8940    4.9492   -3.4414 H         1 <0>         0.0686
     24 H5          7.0791    5.8433    0.4767 H         1 <0>         0.0575
     25 H6          7.7099    5.0924   -1.0263 H         1 <0>         0.0787
     26 H7          5.2270    4.3091    0.5977 H         1 <0>         0.0791
     27 H8          6.5362    3.2475   -0.0095 H         1 <0>         0.0614
     28 H9          5.3486    2.8187   -3.3780 H         1 <0>         0.0574
     29 H10         6.8975    3.2460   -2.6122 H         1 <0>         0.0757
     30 H11         5.8921    1.9487   -1.9234 H         1 <0>         0.0503
     31 H12         3.2353    3.2623   -3.2093 H         1 <0>         0.3997
     32 H13         1.1925    3.0755   -1.1308 H         1 <0>         0.0864
     33 H14         2.3584    0.8949   -0.9458 H         1 <0>         0.0654
     34 H15         2.1165    0.6177   -2.6873 H         1 <0>         0.0619
     35 H16        -0.0977    0.9976   -0.6209 H         1 <0>         0.0633
     36 H17         0.3859   -0.5520   -1.3511 H         1 <0>         0.0619
     37 H18        -0.1922    0.3259   -3.5969 H         1 <0>         0.0614
     38 H19        -1.5949    0.3952   -2.5034 H         1 <0>         0.0610
     39 H20        -1.3580    2.5065   -3.7820 H         1 <0>         0.0649
     40 H21        -1.1161    2.7837   -2.0405 H         1 <0>         0.0644
     41 H22         1.0981    2.4038   -4.1069 H         1 <0>         0.0664
     42 H23         0.6145    3.9534   -3.3767 H         1 <0>         0.0703
     43 H24         3.1819    5.7727   -1.4755 H         1 <0>         0.0498
     44 H25         3.7006    6.7997   -2.8336 H         1 <0>         0.0687
     45 H26         3.1893    5.1210   -3.1319 H         1 <0>         0.0511
     46 O3          6.1862    8.4201   -2.5143 O.co2     1 <0>        -0.7742
@<TRIPOS>BOND
     1    1    2 1
     2    1   21 1
     3    1   22 1
     4    1   23 1
     5    2    7 1
     6    2    3 1
     7    2   20 1
     8    3    4 1
     9    3    5 1
    10    3   18 1
    11    5    6 1
    12    5   24 1
    13    5   25 1
    14    6    7 1
    15    6   26 1
    16    6   27 1
    17    7    8 1
    18    7    9 1
    19    8   28 1
    20    8   29 1
    21    8   30 1
    22    9   10 2
    23    9   11 am
    24   11   12 1
    25   11   31 1
    26   12   17 1
    27   12   13 1
    28   12   32 1
    29   13   14 1
    30   13   33 1
    31   13   34 1
    32   14   15 1
    33   14   35 1
    34   14   36 1
    35   15   16 1
    36   15   37 1
    37   15   38 1
    38   16   17 1
    39   16   39 1
    40   16   40 1
    41   17   41 1
    42   17   42 1
    43   18   19 2
    44   18   46 1
    45   20   43 1
    46   20   44 1
    47   20   45 1
@<TRIPOS>MOLECULE
ZINC37121018
   29    30     0     0     0
SMALL
USER_CHARGES

@<TRIPOS>ATOM
      1 C1         -0.0187    1.5258    0.0104 C.3       1 <0>        -0.1656
      2 C2          0.0021   -0.0041    0.0020 C.3       1 <0>         0.2370
      3 H1         -1.0205   -0.3814    0.0098 H         1 <0>         0.0981
      4 C3          0.7309   -0.5033    1.2229 C.2       1 <0>        -0.1419
      5 C4          0.2222   -0.9787    2.3859 C.2       1 <0>        -0.1556
      6 C5          1.0911   -1.3863    3.3806 C.2       1 <0>        -0.1546
      7 C6          2.4262   -1.2985    3.1638 C.2       1 <0>        -0.1792
      8 S1          2.4885   -0.6293    1.5099 S.3       1 <0>         0.0469
      9 N1          0.6878   -0.4765   -1.2033 N.pl3     1 <0>        -0.7479
     10 C7         -0.0191   -0.6130   -2.4014 C.ar      1 <0>         0.1951
     11 C8         -1.3720   -0.2947   -2.4502 C.ar      1 <0>        -0.1937
     12 C9         -2.0768   -0.4274   -3.6312 C.ar      1 <0>        -0.0892
     13 C10        -1.4423   -0.8774   -4.7730 C.ar      1 <0>        -0.0529
     14 C11        -0.0821   -1.1997   -4.7348 C.ar      1 <0>        -0.0838
     15 C12         0.6298   -1.0598   -3.5409 C.ar      1 <0>        -0.1414
     16 C13         0.5991   -1.6808   -5.9510 C.2       1 <0>         0.5155
     17 O1          1.7888   -1.9620   -5.9148 O.co2     1 <0>        -0.6896
     18 O2         -0.0257   -1.7987   -6.9958 O.co2     1 <0>        -0.6591
     19 Cl1        -2.3331   -1.0431   -6.2537 Cl        1 <0>        -0.0570
     20 H2          1.0039    1.9031    0.0027 H         1 <0>         0.0609
     21 H3         -0.5459    1.8868   -0.8726 H         1 <0>         0.0718
     22 H4         -0.5289    1.8773    0.9072 H         1 <0>         0.0642
     23 H5         -0.8461   -1.0378    2.5332 H         1 <0>         0.1338
     24 H6          0.7118   -1.7687    4.3168 H         1 <0>         0.1330
     25 H7          3.2409   -1.5675    3.8198 H         1 <0>         0.1847
     26 H8          1.6324   -0.6946   -1.1699 H         1 <0>         0.3980
     27 H9         -1.8740    0.0572   -1.5610 H         1 <0>         0.1195
     28 H10        -3.1273   -0.1787   -3.6618 H         1 <0>         0.1224
     29 H11         1.6814   -1.3034   -3.5054 H         1 <0>         0.1307
@<TRIPOS>BOND
     1    1    2 1
     2    1   20 1
     3    1   21 1
     4    1   22 1
     5    2    3 1
     6    2    4 1
     7    2    9 1
     8    4    8 1
     9    4    5 2
    10    5    6 1
    11    5   23 1
    12    6    7 2
    13    6   24 1
    14    7    8 1
    15    7   25 1
    16    9   10 1
    17    9   26 1
    18   10   15 ar
    19   10   11 ar
    20   11   12 ar
    21   11   27 1
    22   12   13 ar
    23   12   28 1
    24   13   14 ar
    25   13   19 1
    26   14   15 ar
    27   14   16 1
    28   15   29 1
    29   16   17 2
    30   16   18 1
@<TRIPOS>MOLECULE
ZINC41660015
   37    40     0     0     0
SMALL
USER_CHARGES

@<TRIPOS>ATOM
      1 C1          0.8109   -0.3209   -2.1784 C.ar      1 <0>        -0.1856
      2 C2          2.0254    0.2942   -2.2918 C.ar      1 <0>        -0.0553
      3 C3          2.7829    0.4901   -1.1209 C.ar      1 <0>        -0.0967
      4 C4          4.0378    1.1149   -1.1625 C.ar      1 <0>        -0.0800
      5 C5          4.7496    1.2883    0.0106 C.ar      1 <0>         0.0148
      6 C6          4.2234    0.8434    1.2348 C.ar      1 <0>        -0.0781
      7 C7          3.0104    0.2367    1.2940 C.ar      1 <0>        -0.1057
      8 C8          2.2596    0.0448    0.1192 C.ar      1 <0>         0.1180
      9 N1          1.0634   -0.5496    0.1595 N.ar      1 <0>        -0.4751
     10 C9          0.3556   -0.7341   -0.9287 C.ar      1 <0>         0.1159
     11 C10         6.0769    1.9478   -0.0241 C.2       1 <0>         0.1700
     12 C11         7.1197    1.4394    0.6976 C.2       1 <0>        -0.3025
     13 S1          8.4117    2.6034    0.2829 S.3       1 <0>        -0.1500
     14 C12         7.4412    3.6414   -0.8010 C.2       1 <0>         0.4074
     15 N2          6.2671    3.0387   -0.7633 N.2       1 <0>        -0.6903
     16 N3          7.8215    4.7755   -1.4998 N.2       1 <0>        -0.8334
     17 C13         7.1673    0.2308    1.5965 C.3       1 <0>         0.0273
     18 C14         7.4665    0.6624    3.0470 C.3       1 <0>        -0.1187
     19 C15         8.3839   -0.4586    3.5954 C.3       1 <0>        -0.1242
     20 C16         9.2734   -0.8003    2.3743 C.3       1 <0>        -0.1218
     21 C17         8.3162   -0.6992    1.1688 C.3       1 <0>        -0.1193
     22 H1          0.2027   -0.4826   -3.0561 H         1 <0>         0.1316
     23 H2          2.3945    0.6208   -3.2527 H         1 <0>         0.1350
     24 H3          4.4450    1.4572   -2.1024 H         1 <0>         0.1314
     25 H4          4.7922    0.9858    2.1418 H         1 <0>         0.1333
     26 H5          2.6211   -0.0992    2.2437 H         1 <0>         0.1321
     27 H6         -0.6065   -1.2191   -0.8539 H         1 <0>         0.1527
     28 H7          6.2184   -0.3039    1.5535 H         1 <0>         0.0746
     29 H8          7.9856    1.6208    3.0604 H         1 <0>         0.0707
     30 H9          6.5448    0.7186    3.6262 H         1 <0>         0.0570
     31 H10         8.9896   -0.0915    4.4239 H         1 <0>         0.0589
     32 H11         7.7960   -1.3247    3.8994 H         1 <0>         0.0609
     33 H12        10.0843   -0.0781    2.2791 H         1 <0>         0.0629
     34 H13         9.6704   -1.8116    2.4625 H         1 <0>         0.0558
     35 H14         7.9249   -1.6855    0.9190 H         1 <0>         0.0537
     36 H15         8.8393   -0.2764    0.3111 H         1 <0>         0.0687
     37 H16         7.1777    5.2410   -2.0562 H         1 <0>         0.3040
@<TRIPOS>BOND
     1    1   10 ar
     2    1    2 ar
     3    1   22 1
     4    2    3 ar
     5    2   23 1
     6    3    8 ar
     7    3    4 ar
     8    4    5 ar
     9    4   24 1
    10    5    6 ar
    11    5   11 1
    12    6    7 ar
    13    6   25 1
    14    7    8 ar
    15    7   26 1
    16    8    9 ar
    17    9   10 ar
    18   10   27 1
    19   11   15 1
    20   11   12 2
    21   12   13 1
    22   12   17 1
    23   13   14 1
    24   14   15 2
    25   14   16 1
    26   16   37 1
    27   17   21 1
    28   17   18 1
    29   17   28 1
    30   18   19 1
    31   18   29 1
    32   18   30 1
    33   19   20 1
    34   19   31 1
    35   19   32 1
    36   20   21 1
    37   20   33 1
    38   20   34 1
    39   21   35 1
    40   21   36 1
@<TRIPOS>MOLECULE
ZINC54531420
   38    39     0     0     0
SMALL
USER_CHARGES

@<TRIPOS>ATOM
      1 C1         -0.0000    1.4881    0.2817 C.3       1 <0>        -0.1048
      2 C2          0.0113   -0.0114    0.1317 C.ar      1 <0>        -0.0603
      3 C3         -0.1698   -0.5794   -1.1203 C.ar      1 <0>        -0.1914
      4 C4         -0.1613   -1.9477   -1.2718 C.ar      1 <0>        -0.0513
      5 C5          0.0311   -2.7719   -0.1576 C.ar      1 <0>        -0.1957
      6 C6          0.2143   -2.1926    1.1095 C.ar      1 <0>         0.2416
      7 C7          0.2074   -0.8089    1.2397 C.ar      1 <0>        -0.2151
      8 N1          0.4056   -2.9972    2.2232 N.pl3     1 <0>        -0.7265
      9 C8          0.4908   -2.3949    3.5560 C.3       1 <0>         0.2208
     10 H1          0.9899   -1.4284    3.4867 H         1 <0>         0.0804
     11 C9         -0.9185   -2.2019    4.1195 C.3       1 <0>        -0.1602
     12 C10         1.2765   -3.3018    4.4677 C.2       1 <0>        -0.1708
     13 C11         1.5239   -4.6805    4.2758 C.2       1 <0>        -0.1910
     14 C12         2.2615   -5.0935    5.3221 C.2       1 <0>        -0.0213
     15 O1          2.4727   -4.0439    6.1330 O.3       1 <0>        -0.1760
     16 C13         1.8819   -2.9536    5.6173 C.2       1 <0>        -0.0188
     17 C14         1.8926   -1.5747    6.2252 C.3       1 <0>        -0.0697
     18 C15         2.7650   -6.4960    5.5467 C.3       1 <0>        -0.0697
     19 C16         0.0409   -4.2342   -0.3114 C.2       1 <0>         0.5276
     20 O2          0.7934   -4.7591   -1.1210 O.co2     1 <0>        -0.6901
     21 O3         -0.7033   -4.9261    0.3701 O.co2     1 <0>        -0.6914
     22 H2          1.0117    1.8735    0.1555 H         1 <0>         0.0618
     23 H3         -0.6520    1.9241   -0.4752 H         1 <0>         0.0594
     24 H4         -0.3680    1.7513    1.2734 H         1 <0>         0.0575
     25 H5         -0.3188    0.0552   -1.9814 H         1 <0>         0.1074
     26 H6         -0.3033   -2.3843   -2.2494 H         1 <0>         0.1142
     27 H7          0.3521   -0.3578    2.2103 H         1 <0>         0.1110
     28 H8          0.4829   -3.9585    2.1195 H         1 <0>         0.4112
     29 H9         -1.4176   -3.1685    4.1888 H         1 <0>         0.0606
     30 H10        -0.8551   -1.7539    5.1111 H         1 <0>         0.0568
     31 H11        -1.4868   -1.5460    3.4600 H         1 <0>         0.0630
     32 H12         1.1852   -5.2861    3.4482 H         1 <0>         0.1509
     33 H13         1.0368   -1.4646    6.8912 H         1 <0>         0.0791
     34 H14         2.8137   -1.4341    6.7909 H         1 <0>         0.0736
     35 H15         1.8351   -0.8280    5.4332 H         1 <0>         0.0868
     36 H16         3.7456   -6.6084    5.0842 H         1 <0>         0.0792
     37 H17         2.8440   -6.6867    6.6169 H         1 <0>         0.0722
     38 H18         2.0695   -7.2074    5.1012 H         1 <0>         0.0892
@<TRIPOS>BOND
     1    1    2 1
     2    1   22 1
     3    1   23 1
     4    1   24 1
     5    2    7 ar
     6    2    3 ar
     7    3    4 ar
     8    3   25 1
     9    4    5 ar
    10    4   26 1
    11    5    6 ar
    12    5   19 1
    13    6    7 ar
    14    6    8 1
    15    7   27 1
    16    8    9 1
    17    8   28 1
    18    9   10 1
    19    9   11 1
    20    9   12 1
    21   11   29 1
    22   11   30 1
    23   11   31 1
    24   12   16 2
    25   12   13 1
    26   13   14 2
    27   13   32 1
    28   14   15 1
    29   14   18 1
    30   15   16 1
    31   16   17 1
    32   17   33 1
    33   17   34 1
    34   17   35 1
    35   18   36 1
    36   18   37 1
    37   18   38 1
    38   19   20 2
    39   19   21 1
@<TRIPOS>MOLECULE
ZINC05575332
   28    29     0     0     0
SMALL
USER_CHARGES
2-[3-oxo-3-(1H-pyrrol-2-yl)prop-1-enyl]benzoic acid
@<TRIPOS>ATOM
      1 C1          6.2226    5.8249   -0.1306 C.ar      1 <0>        -0.1308
      2 C2          7.6058    5.8791   -0.0792 C.ar      1 <0>        -0.1230
      3 C3          8.3496    4.7191    0.0122 C.ar      1 <0>        -0.0834
      4 C4          7.7092    3.4823    0.0603 C.ar      1 <0>        -0.0850
      5 C5          6.3008    3.4258    0.0027 C.ar      1 <0>        -0.0649
      6 C6          5.5679    4.6107   -0.0902 C.ar      1 <0>        -0.1153
      7 C7          5.6092    2.1286    0.0461 C.2       1 <0>         0.0192
      8 C8          4.2935    2.0751    0.3388 C.2       1 <0>        -0.2890
      9 C9          3.6040    0.7818    0.3821 C.2       1 <0>         0.4483
     10 O1          4.2196   -0.2448    0.1536 O.2       1 <0>        -0.4508
     11 C10         2.1734    0.7237    0.7003 C.2       1 <0>        -0.0600
     12 C11         1.3995   -0.4176    0.7759 C.2       1 <0>        -0.1215
     13 C12         0.1029   -0.0133    1.1046 C.2       1 <0>        -0.2149
     14 C13         0.1053    1.3372    1.2219 C.2       1 <0>         0.0126
     15 N1          1.3576    1.7966    0.9785 N.pl3     1 <0>        -0.5316
     16 H1          1.6326    2.7266    0.9971 H         1 <0>         0.4177
     17 C14         8.4991    2.2399    0.1652 C.2       1 <0>         0.4870
     18 O2          7.9481    1.1607    0.0796 O.co2     1 <0>        -0.6141
     19 H2          5.6525    6.7394   -0.2024 H         1 <0>         0.1180
     20 H3          8.1062    6.8357   -0.1113 H         1 <0>         0.1198
     21 H4          9.4277    4.7707    0.0514 H         1 <0>         0.1353
     22 H5          4.4892    4.5769   -0.1307 H         1 <0>         0.1196
     23 H6          6.1548    1.2187   -0.1564 H         1 <0>         0.1857
     24 H7          3.7479    2.9850    0.5412 H         1 <0>         0.1117
     25 H8          1.7334   -1.4315    0.6116 H         1 <0>         0.1453
     26 H9         -0.7499   -0.6618    1.2411 H         1 <0>         0.1401
     27 H10        -0.7516    1.9481    1.4649 H         1 <0>         0.1681
     28 O3          9.8315    2.3028    0.3559 O.co2     1 <0>        -0.7443
@<TRIPOS>BOND
     1    1    6 ar
     2    1    2 ar
     3    1   19 1
     4    2    3 ar
     5    2   20 1
     6    3    4 ar
     7    3   21 1
     8    4    5 ar
     9    4   17 1
    10    5    6 ar
    11    5    7 1
    12    6   22 1
    13    7    8 2
    14    7   23 1
    15    8    9 1
    16    8   24 1
    17    9   10 2
    18    9   11 1
    19   11   15 1
    20   11   12 2
    21   12   13 1
    22   12   25 1
    23   13   14 2
    24   13   26 1
    25   14   15 1
    26   14   27 1
    27   15   16 1
    28   17   18 2
    29   17   28 1
@<TRIPOS>MOLECULE
ZINC26420256
   28    29     0     0     0
SMALL
USER_CHARGES
2-[[4-(p-tolyl)-3H-imidazol-2-yl]sulfanyl]acetic acid
@<TRIPOS>ATOM
      1 C1          6.6214    0.2230   -0.0563 C.3       1 <0>        -0.1153
      2 C2          5.1726    0.6375   -0.0415 C.ar      1 <0>        -0.0974
      3 C3          4.8406    1.9807   -0.0323 C.ar      1 <0>        -0.1099
      4 C4          3.5165    2.3670   -0.0182 C.ar      1 <0>        -0.1050
      5 C5          2.5102    1.3992   -0.0137 C.ar      1 <0>         0.0039
      6 C6          2.8523    0.0455   -0.0177 C.ar      1 <0>        -0.1228
      7 C7          4.1804   -0.3269   -0.0366 C.ar      1 <0>        -0.1107
      8 C8          1.0896    1.8056    0.0014 C.2       1 <0>        -0.0153
      9 C9          0.6088    3.0765    0.0128 C.2       1 <0>         0.0132
     10 N1         -0.7288    3.0179    0.0252 N.2       1 <0>        -0.4939
     11 C10        -1.1155    1.7619    0.0162 C.2       1 <0>         0.2183
     12 N2         -0.0111    0.9658    0.0074 N.pl3     1 <0>        -0.5646
     13 H1          0.1295   -0.1252    0.0046 H         1 <0>         0.4445
     14 S1         -2.7859    1.2013    0.0200 S.3       1 <0>         0.0209
     15 C11        -3.6510    2.7911    0.0322 C.3       1 <0>        -0.1340
     16 C12        -5.1391    2.5532    0.0370 C.2       1 <0>         0.4802
     17 O1         -5.5705    1.4246    0.0327 O.co2     1 <0>        -0.6220
     18 O2         -5.9853    3.5951    0.0462 O.co2     1 <0>        -0.7477
     19 H2          7.2592    1.1192   -0.0583 H         1 <0>         0.0647
     20 H3          6.8231   -0.3726   -0.9588 H         1 <0>         0.0681
     21 H4          6.8393   -0.3802    0.8374 H         1 <0>         0.0682
     22 H5          5.6200    2.7283   -0.0358 H         1 <0>         0.1245
     23 H6          3.2587    3.4158   -0.0103 H         1 <0>         0.1280
     24 H7          2.0788   -0.7082   -0.0093 H         1 <0>         0.1160
     25 H8          4.4463   -1.3736   -0.0438 H         1 <0>         0.1223
     26 H9          1.2030    3.9783    0.0116 H         1 <0>         0.1690
     27 H10        -3.3671    3.3561    0.9323 H         1 <0>         0.0985
     28 H11        -3.3744    3.3659   -0.8639 H         1 <0>         0.0984
@<TRIPOS>BOND
     1    1    2 1
     2    1   19 1
     3    1   20 1
     4    1   21 1
     5    2    7 ar
     6    2    3 ar
     7    3    4 ar
     8    3   22 1
     9    4    5 ar
    10    4   23 1
    11    5    6 ar
    12    5    8 1
    13    6    7 ar
    14    6   24 1
    15    7   25 1
    16    8   12 1
    17    8    9 2
    18    9   10 1
    19    9   26 1
    20   10   11 2
    21   11   12 1
    22   11   14 1
    23   12   13 1
    24   14   15 1
    25   15   16 1
    26   15   27 1
    27   15   28 1
    28   16   17 2
    29   16   18 1
@<TRIPOS>MOLECULE
ZINC37517209
   29    30     0     0     0
SMALL
USER_CHARGES

@<TRIPOS>ATOM
      1 C1          0.0194    1.8623   -0.0480 C.3       1 <0>        -0.1419
      2 S1          0.0252    0.0483   -0.0470 S.3       1 <0>        -0.1251
      3 C2          0.8734   -0.3760   -1.5320 C.ar      1 <0>        -0.0664
      4 C3          1.3540    0.6245   -2.3694 C.ar      1 <0>        -0.1610
      5 C4          2.0189    0.2923   -3.5335 C.ar      1 <0>        -0.0860
      6 C5          2.2087   -1.0346   -3.8699 C.ar      1 <0>        -0.1304
      7 C6          1.7312   -2.0393   -3.0377 C.ar      1 <0>         0.1956
      8 C7          1.0678   -1.7098   -1.8646 C.ar      1 <0>        -0.1205
      9 N1          1.9241   -3.3824   -3.3796 N.am      1 <0>        -0.6590
     10 C8          1.8887   -3.7604   -4.6727 C.2       1 <0>         0.5792
     11 O1          1.7696   -2.9265   -5.5453 O.2       1 <0>        -0.5301
     12 C9          1.9970   -5.2193   -5.0345 C.3       1 <0>        -0.1910
     13 H1          2.8338   -5.7542   -4.5853 H         1 <0>         0.1162
     14 C10         1.5711   -5.6308   -6.4453 C.3       1 <0>        -0.1343
     15 C11         0.6942   -5.9938   -5.2442 C.3       1 <0>        -0.1779
     16 H2          0.6741   -7.0383   -4.9332 H         1 <0>         0.1040
     17 C12        -0.5990   -5.2393   -5.0731 C.2       1 <0>         0.5128
     18 O2         -1.5561   -5.5016   -5.7815 O.co2     1 <0>        -0.6896
     19 O3         -0.6883   -4.3667   -4.2263 O.co2     1 <0>        -0.6762
     20 H3          1.0459    2.2289   -0.0537 H         1 <0>         0.0812
     21 H4         -0.5004    2.2235   -0.9354 H         1 <0>         0.0827
     22 H5         -0.4908    2.2245    0.8445 H         1 <0>         0.1049
     23 H6          1.2070    1.6624   -2.1096 H         1 <0>         0.1181
     24 H7          2.3909    1.0712   -4.1825 H         1 <0>         0.1240
     25 H8          2.7288   -1.2909   -4.7811 H         1 <0>         0.1396
     26 H9          0.6995   -2.4891   -1.2139 H         1 <0>         0.1301
     27 H10         2.0833   -4.0414   -2.6858 H         1 <0>         0.4076
     28 H11         1.2125   -4.8464   -7.1117 H         1 <0>         0.1001
     29 H12         2.1274   -6.4367   -6.9240 H         1 <0>         0.0933
@<TRIPOS>BOND
     1    1    2 1
     2    1   20 1
     3    1   21 1
     4    1   22 1
     5    2    3 1
     6    3    8 ar
     7    3    4 ar
     8    4    5 ar
     9    4   23 1
    10    5    6 ar
    11    5   24 1
    12    6    7 ar
    13    6   25 1
    14    7    8 ar
    15    7    9 1
    16    8   26 1
    17    9   10 am
    18    9   27 1
    19   10   11 2
    20   10   12 1
    21   12   13 1
    22   12   15 1
    23   12   14 1
    24   14   15 1
    25   14   28 1
    26   14   29 1
    27   15   16 1
    28   15   17 1
    29   17   18 2
    30   17   19 1
@<TRIPOS>MOLECULE
ZINC41768340
   35    36     0     0     0
SMALL
USER_CHARGES

@<TRIPOS>ATOM
      1 C1         -0.4365    1.0294   -0.4660 C.3       1 <0>        -0.1442
      2 C2         -0.1996   -0.4321   -0.0803 C.3       1 <0>        -0.0754
      3 H1          0.3700   -0.9276   -0.8665 H         1 <0>         0.0619
      4 C3         -1.5456   -1.1377    0.0963 C.3       1 <0>        -0.1127
      5 C4         -2.3451   -0.4421    1.1999 C.3       1 <0>        -0.1149
      6 C5         -1.5616   -0.5025    2.5126 C.3       1 <0>        -0.1172
      7 C6         -0.2155    0.2031    2.3361 C.3       1 <0>        -0.1286
      8 C7          0.5840   -0.4925    1.2325 C.3       1 <0>         0.1100
      9 C8          1.9098    0.2025    1.0586 C.2       1 <0>         0.5115
     10 O1          1.9514    1.4151    0.9390 O.co2     1 <0>        -0.6946
     11 O2          2.9409   -0.4479    1.0374 O.co2     1 <0>        -0.6965
     12 N1          0.8109   -1.8919    1.6018 N.pl3     1 <0>        -0.6998
     13 C9          1.3576   -2.2062    2.8520 C.ar      1 <0>         0.1916
     14 C10         1.9909   -1.2227    3.6027 C.ar      1 <0>         0.0710
     15 C11         2.5293   -1.5370    4.8376 C.ar      1 <0>        -0.1254
     16 C12         2.4385   -2.8278    5.3251 C.ar      1 <0>        -0.1433
     17 C13         1.8097   -3.8091    4.5810 C.ar      1 <0>        -0.1231
     18 C14         1.2633   -3.5012    3.3480 C.ar      1 <0>         0.0189
     19 F1          0.6438   -4.4592    2.6245 F         1 <0>        -0.1457
     20 F2          2.0808    0.0385    3.1268 F         1 <0>        -0.0901
     21 H2          0.5224    1.5320   -0.5918 H         1 <0>         0.0868
     22 H3         -0.9947    1.0724   -1.4012 H         1 <0>         0.0367
     23 H4         -1.0061    1.5249    0.3202 H         1 <0>         0.0552
     24 H5         -2.1038   -1.0947   -0.8389 H         1 <0>         0.0554
     25 H6         -1.3768   -2.1789    0.3711 H         1 <0>         0.0549
     26 H7         -2.5140    0.5991    0.9251 H         1 <0>         0.0632
     27 H8         -3.3041   -0.9448    1.3257 H         1 <0>         0.0504
     28 H9         -2.1312   -0.0070    3.2989 H         1 <0>         0.0510
     29 H10        -1.3928   -1.5437    2.7875 H         1 <0>         0.0557
     30 H11        -0.3844    1.2443    2.0613 H         1 <0>         0.0775
     31 H12         0.3427    0.1601    3.2713 H         1 <0>         0.0755
     32 H13         0.5824   -2.6007    0.9803 H         1 <0>         0.3932
     33 H14         3.0215   -0.7733    5.4215 H         1 <0>         0.1321
     34 H15         2.8601   -3.0702    6.2894 H         1 <0>         0.1293
     35 H16         1.7414   -4.8163    4.9649 H         1 <0>         0.1298
@<TRIPOS>BOND
     1    1    2 1
     2    1   21 1
     3    1   22 1
     4    1   23 1
     5    2    3 1
     6    2    8 1
     7    2    4 1
     8    4    5 1
     9    4   24 1
    10    4   25 1
    11    5    6 1
    12    5   26 1
    13    5   27 1
    14    6    7 1
    15    6   28 1
    16    6   29 1
    17    7    8 1
    18    7   30 1
    19    7   31 1
    20    8    9 1
    21    8   12 1
    22    9   10 2
    23    9   11 1
    24   12   13 1
    25   12   32 1
    26   13   18 ar
    27   13   14 ar
    28   14   15 ar
    29   14   20 1
    30   15   16 ar
    31   15   33 1
    32   16   17 ar
    33   16   34 1
    34   17   18 ar
    35   17   35 1
    36   18   19 1
@<TRIPOS>MOLECULE
ZINC51891683
   36    37     0     0     0
SMALL
USER_CHARGES

@<TRIPOS>ATOM
      1 C1          0.5653    1.3997   -1.0610 C.ar      1 <0>        -0.2209
      2 C2          1.1861    2.0902   -0.0163 C.ar      1 <0>        -0.1038
      3 C3          1.8243    1.3786    1.0037 C.ar      1 <0>         0.0121
      4 C4          1.8375   -0.0075    0.9728 C.ar      1 <0>         0.2434
      5 C5          1.2183   -0.6852   -0.0687 C.ar      1 <0>        -0.0650
      6 C6          0.5841    0.0203   -1.0824 C.ar      1 <0>         0.1066
      7 F1         -0.0168   -0.6458   -2.0926 F         1 <0>        -0.1446
      8 F2          1.2329   -2.0359   -0.0959 F         1 <0>        -0.1397
      9 O1          2.4578   -0.7037    1.9631 O.3       1 <0>        -0.6714
     10 F3          2.4268    2.0395    2.0163 F         1 <0>        -0.1344
     11 C7          1.1684    3.5658    0.0096 C.2       1 <0>         0.5769
     12 O2          2.2101    4.1846    0.1098 O.2       1 <0>        -0.5314
     13 N1         -0.0027    4.2272   -0.0779 N.am      1 <0>        -0.6097
     14 C8         -1.2776    3.4971   -0.0652 C.3       1 <0>         0.1025
     15 C9         -2.1702    4.0827    1.0335 C.3       1 <0>        -0.1368
     16 C10        -2.3121    5.5915    0.8198 C.3       1 <0>        -0.1111
     17 C11        -0.9352    6.2532    0.9122 C.3       1 <0>        -0.1020
     18 H1         -0.4959    6.0441    1.8876 H         1 <0>         0.0781
     19 C12        -0.0288    5.6926   -0.1816 C.3       1 <0>         0.1151
     20 C13        -1.0822    7.7654    0.7319 C.3       1 <0>        -0.1091
     21 C14         0.2744    8.4390    0.9481 C.3       1 <0>         0.0697
     22 O3          0.1371    9.8514    0.7796 O.3       1 <0>        -0.5782
     23 H2          0.0672    1.9455   -1.8487 H         1 <0>         0.1306
     24 H3         -1.7698    3.6044   -1.0318 H         1 <0>         0.0682
     25 H4         -1.0926    2.4423    0.1379 H         1 <0>         0.0996
     26 H5         -3.1539    3.6152    0.9907 H         1 <0>         0.0772
     27 H6         -1.7193    3.8941    2.0077 H         1 <0>         0.0691
     28 H7         -2.7402    5.7801   -0.1647 H         1 <0>         0.0652
     29 H8         -2.9667    6.0068    1.5859 H         1 <0>         0.0654
     30 H9          0.9799    6.0859   -0.0554 H         1 <0>         0.0919
     31 H10        -0.4168    5.9829   -1.1580 H         1 <0>         0.0664
     32 H11        -1.4370    7.9783   -0.2765 H         1 <0>         0.0712
     33 H12        -1.7986    8.1499    1.4579 H         1 <0>         0.0722
     34 H13         0.6292    8.2261    1.9565 H         1 <0>         0.0468
     35 H14         0.9908    8.0545    0.2221 H         1 <0>         0.0506
     36 H15         0.9601   10.3440    0.9025 H         1 <0>         0.3793
@<TRIPOS>BOND
     1    1    6 ar
     2    1    2 ar
     3    1   23 1
     4    2    3 ar
     5    2   11 1
     6    3    4 ar
     7    3   10 1
     8    4    5 ar
     9    4    9 1
    10    5    6 ar
    11    5    8 1
    12    6    7 1
    13   11   12 2
    14   11   13 am
    15   13   19 1
    16   13   14 1
    17   14   15 1
    18   14   24 1
    19   14   25 1
    20   15   16 1
    21   15   26 1
    22   15   27 1
    23   16   17 1
    24   16   28 1
    25   16   29 1
    26   17   18 1
    27   17   19 1
    28   17   20 1
    29   19   30 1
    30   19   31 1
    31   20   21 1
    32   20   32 1
    33   20   33 1
    34   21   22 1
    35   21   34 1
    36   21   35 1
    37   22   36 1
@<TRIPOS>MOLECULE
ZINC66584796
   32    33     0     0     0
SMALL
USER_CHARGES

@<TRIPOS>ATOM
      1 C1         -0.0187    1.5258    0.0104 C.3       1 <0>        -0.1373
      2 C2          0.0021   -0.0041    0.0020 C.3       1 <0>        -0.0857
      3 C3          0.7421   -0.5109    1.2415 C.3       1 <0>        -0.1768
      4 C4         -1.4333   -0.5336    0.0129 C.3       1 <0>        -0.5949
      5 S1         -1.4124   -2.3405   -0.1461 S.o2      1 <0>         2.5281
      6 O1         -0.9508   -2.7130   -1.4374 O.2       1 <0>        -1.0289
      7 O2         -0.8528   -2.9281    1.0205 O.2       1 <0>        -1.0229
      8 N1         -3.0065   -2.7884   -0.1218 N.2       1 <0>        -1.0920
      9 C5         -3.3544   -4.1360   -0.2258 C.ar      1 <0>         0.3378
     10 C6         -2.3713   -5.1025   -0.3438 C.ar      1 <0>        -0.3137
     11 C7         -2.7158   -6.4421   -0.4468 C.ar      1 <0>        -0.0280
     12 C8         -4.0371   -6.8324   -0.4340 C.ar      1 <0>        -0.2567
     13 C9         -5.0448   -5.8791   -0.3163 C.ar      1 <0>         0.1365
     14 C10        -4.7022   -4.5207   -0.2058 C.ar      1 <0>        -0.1594
     15 C11        -5.9668   -3.7905   -0.0927 C.2       1 <0>        -0.1452
     16 C12        -6.9511   -4.7020   -0.1334 C.2       1 <0>        -0.0224
     17 N2         -6.4189   -5.9561   -0.2746 N.pl3     1 <0>        -0.6064
     18 H1         -6.9330   -6.7770   -0.3274 H         1 <0>         0.4021
     19 H2          1.0039    1.9031    0.0027 H         1 <0>         0.0544
     20 H3         -0.5459    1.8868   -0.8726 H         1 <0>         0.0548
     21 H4         -0.5289    1.8773    0.9072 H         1 <0>         0.0557
     22 H5          0.5123   -0.3556   -0.8948 H         1 <0>         0.0764
     23 H6          0.2319   -0.1594    2.1383 H         1 <0>         0.0610
     24 H7          0.7568   -1.6008    1.2356 H         1 <0>         0.0805
     25 H8          1.7647   -0.1336    1.2338 H         1 <0>         0.0581
     26 H9         -1.9156   -0.2570    0.9504 H         1 <0>         0.1196
     27 H10        -1.9862   -0.1019   -0.8214 H         1 <0>         0.1185
     28 H11        -1.3310   -4.8124   -0.3560 H         1 <0>         0.0999
     29 H12        -1.9397   -7.1875   -0.5384 H         1 <0>         0.1029
     30 H13        -4.2913   -7.8789   -0.5157 H         1 <0>         0.0964
     31 H14        -6.0848   -2.7214    0.0054 H         1 <0>         0.1350
     32 H15        -8.0060   -4.4790   -0.0721 H         1 <0>         0.1527
@<TRIPOS>BOND
     1    1    2 1
     2    1   19 1
     3    1   20 1
     4    1   21 1
     5    2    3 1
     6    2    4 1
     7    2   22 1
     8    3   23 1
     9    3   24 1
    10    3   25 1
    11    4    5 1
    12    4   26 1
    13    4   27 1
    14    5    6 2
    15    5    7 2
    16    5    8 1
    17    8    9 1
    18    9   14 ar
    19    9   10 ar
    20   10   11 ar
    21   10   28 1
    22   11   12 ar
    23   11   29 1
    24   12   13 ar
    25   12   30 1
    26   13   17 1
    27   13   14 ar
    28   14   15 1
    29   15   16 2
    30   15   31 1
    31   16   17 1
    32   16   32 1
    33   17   18 1
@<TRIPOS>MOLECULE
ZINC13172104
   36    38     0     0     0
SMALL
USER_CHARGES
5-chloro-4-(5,6-dihydro-4H-cyclopenta[d]thiophene-2-carbonylamino)-2-methoxy-benzoic acid
@<TRIPOS>ATOM
      1 C1         -5.5842    3.4330    1.7242 C.3       1 <0>         0.0194
      2 O1         -5.5279    4.6776    1.0243 O.3       1 <0>        -0.2639
      3 C2         -4.3479    5.0021    0.4387 C.ar      1 <0>         0.1793
      4 C3         -3.2669    4.1420    0.5286 C.ar      1 <0>        -0.2165
      5 C4         -2.0602    4.4819   -0.0684 C.ar      1 <0>         0.1817
      6 C5         -1.9360    5.6819   -0.7676 C.ar      1 <0>        -0.1074
      7 C6         -2.9973    6.5353   -0.8670 C.ar      1 <0>        -0.0135
      8 C7         -4.2186    6.2092   -0.2661 C.ar      1 <0>        -0.1439
      9 C8         -5.3627    7.1279   -0.3731 C.2       1 <0>         0.4938
     10 O2         -6.4223    6.8425    0.1495 O.co2     1 <0>        -0.6084
     11 Cl1        -0.4244    6.0928   -1.5159 Cl        1 <0>        -0.0831
     12 N1         -0.9710    3.6178    0.0266 N.am      1 <0>        -0.6574
     13 C9         -1.1664    2.2843    0.0237 C.2       1 <0>         0.6066
     14 O3         -2.2975    1.8350    0.0216 O.2       1 <0>        -0.5026
     15 C10        -0.0171    1.3754    0.0231 C.2       1 <0>        -0.2384
     16 C11         0.0014   -0.0043    0.0203 C.2       1 <0>        -0.0505
     17 C12         1.2395   -0.6469    0.0145 C.2       1 <0>        -0.1637
     18 C13         2.3417    0.1496    0.0143 C.2       1 <0>        -0.1881
     19 S1          1.7234    1.7631    0.0178 S.3       1 <0>         0.1804
     20 C14         3.6140   -0.6529    0.0127 C.3       1 <0>        -0.0376
     21 C15         3.1822   -2.0697    0.4497 C.3       1 <0>        -0.1169
     22 C16         1.7071   -2.1049    0.0056 C.3       1 <0>        -0.0590
     23 H1         -5.3657    2.6180    1.0343 H         1 <0>         0.0544
     24 H2         -4.8487    3.4351    2.5287 H         1 <0>         0.0479
     25 H3         -6.5810    3.2968    2.1436 H         1 <0>         0.0972
     26 H4         -3.3609    3.2096    1.0655 H         1 <0>         0.1525
     27 H5         -2.8941    7.4634   -1.4097 H         1 <0>         0.1536
     28 H6         -0.0722    3.9761    0.0948 H         1 <0>         0.4099
     29 H7         -0.9178   -0.5714    0.0230 H         1 <0>         0.1451
     30 H8          4.3268   -0.2364    0.7244 H         1 <0>         0.0823
     31 H9          4.0456   -0.6788   -0.9878 H         1 <0>         0.0895
     32 H10         3.2665   -2.1866    1.5302 H         1 <0>         0.0768
     33 H11         3.7635   -2.8319   -0.0691 H         1 <0>         0.0839
     34 H12         1.1164   -2.6943    0.7069 H         1 <0>         0.0751
     35 H13         1.6258   -2.5204   -0.9988 H         1 <0>         0.0797
     36 O4         -5.2359    8.2862   -1.0508 O.co2     1 <0>        -0.7580
@<TRIPOS>BOND
     1    1    2 1
     2    1   23 1
     3    1   24 1
     4    1   25 1
     5    2    3 1
     6    3    8 ar
     7    3    4 ar
     8    4    5 ar
     9    4   26 1
    10    5    6 ar
    11    5   12 1
    12    6    7 ar
    13    6   11 1
    14    7    8 ar
    15    7   27 1
    16    8    9 1
    17    9   10 2
    18    9   36 1
    19   12   13 am
    20   12   28 1
    21   13   14 2
    22   13   15 1
    23   15   19 1
    24   15   16 2
    25   16   17 1
    26   16   29 1
    27   17   22 1
    28   17   18 2
    29   18   19 1
    30   18   20 1
    31   20   21 1
    32   20   30 1
    33   20   31 1
    34   21   22 1
    35   21   32 1
    36   21   33 1
    37   22   34 1
    38   22   35 1
@<TRIPOS>MOLECULE
ZINC01214268
   33    34     0     0     0
SMALL
USER_CHARGES

@<TRIPOS>ATOM
      1 C1         -0.0184    1.5028    0.0103 C.3       1 <0>        -0.1155
      2 C2          0.0021   -0.0041    0.0020 C.ar      1 <0>        -0.0544
      3 C3          0.0057   -0.6887   -1.1989 C.ar      1 <0>        -0.1483
      4 C4          0.0245   -2.0709   -1.2065 C.ar      1 <0>        -0.0209
      5 C5          0.0400   -2.7685   -0.0132 C.ar      1 <0>        -0.6153
      6 C6          0.0373   -2.0839    1.1877 C.ar      1 <0>        -0.0207
      7 C7          0.0229   -0.7016    1.1953 C.ar      1 <0>        -0.1479
      8 S1          0.0628   -4.5303   -0.0229 S.o2      1 <0>         2.6046
      9 O1         -0.4759   -4.9503    1.2232 O.2       1 <0>        -1.0318
     10 O2         -0.4897   -4.9367   -1.2674 O.2       1 <0>        -1.0361
     11 N1          1.6509   -4.9994   -0.0343 N.2       1 <0>        -0.9669
     12 N2          1.9789   -6.3614   -0.0435 N.2       1 <0>        -0.1912
     13 C8          3.2233   -6.7290   -0.0524 C.2       1 <0>        -0.0141
     14 C9          3.5685   -8.1624   -0.0621 C.ar      1 <0>        -0.0082
     15 C10         4.9064   -8.5621   -0.0659 C.ar      1 <0>        -0.0835
     16 C11         5.2227   -9.9055   -0.0750 C.ar      1 <0>        -0.0946
     17 C12         4.2181  -10.8588   -0.0809 C.ar      1 <0>        -0.1021
     18 C13         2.8902  -10.4746   -0.0772 C.ar      1 <0>        -0.1406
     19 C14         2.5559   -9.1307   -0.0617 C.ar      1 <0>         0.1277
     20 O3          1.2509   -8.7528   -0.0519 O.3       1 <0>        -0.4725
     21 Br1         7.0347  -10.4465   -0.0802 Br        1 <0>        -0.0690
     22 H1          1.0042    1.8801    0.0026 H         1 <0>         0.0724
     23 H2         -0.5455    1.8639   -0.8728 H         1 <0>         0.0666
     24 H3         -0.5286    1.8543    0.9071 H         1 <0>         0.0666
     25 H4         -0.0064   -0.1436   -2.1312 H         1 <0>         0.1247
     26 H5          0.0266   -2.6057   -2.1448 H         1 <0>         0.1357
     27 H6          0.0491   -2.6289    2.1200 H         1 <0>         0.1359
     28 H7          0.0245   -0.1667    2.1335 H         1 <0>         0.1248
     29 H8          4.0061   -5.9850   -0.0527 H         1 <0>         0.0947
     30 H9          5.6923   -7.8213   -0.0621 H         1 <0>         0.1338
     31 H10         4.4735  -11.9082   -0.0887 H         1 <0>         0.1270
     32 H11         2.1122  -11.2237   -0.0821 H         1 <0>         0.1309
     33 H12         0.8680   -8.6382   -0.9324 H         1 <0>         0.3884
@<TRIPOS>BOND
     1    1    2 1
     2    1   22 1
     3    1   23 1
     4    1   24 1
     5    2    7 ar
     6    2    3 ar
     7    3    4 ar
     8    3   25 1
     9    4    5 ar
    10    4   26 1
    11    5    6 ar
    12    5    8 1
    13    6    7 ar
    14    6   27 1
    15    7   28 1
    16    8    9 2
    17    8   10 2
    18    8   11 1
    19   11   12 1
    20   12   13 2
    21   13   14 1
    22   13   29 1
    23   14   19 ar
    24   14   15 ar
    25   15   16 ar
    26   15   30 1
    27   16   17 ar
    28   16   21 1
    29   17   18 ar
    30   17   31 1
    31   18   19 ar
    32   18   32 1
    33   19   20 1
    34   20   33 1
@<TRIPOS>MOLECULE
ZINC20418752
   45    47     0     0     0
SMALL
USER_CHARGES

@<TRIPOS>ATOM
      1 C1         -1.6779    0.8938    0.1989 C.3       1 <0>        -0.1126
      2 C2         -0.7747   -0.3081    0.0963 C.ar      1 <0>        -0.1320
      3 C3         -0.6677   -0.9925   -1.0988 C.ar      1 <0>        -0.1034
      4 C4          0.1607   -2.0954   -1.1938 C.ar      1 <0>        -0.1527
      5 C5          0.8844   -2.5174   -0.0933 C.ar      1 <0>        -0.1088
      6 C6          0.7817   -1.8380    1.1044 C.ar      1 <0>        -0.1253
      7 C7         -0.0447   -0.7255    1.2014 C.ar      1 <0>         0.1745
      8 N1         -0.1462   -0.0315    2.4111 N.am      1 <0>        -0.6837
      9 C8         -0.0140   -0.6905    3.5793 C.2       1 <0>         0.5817
     10 O1          0.2142   -1.8877    3.5811 O.2       1 <0>        -0.5711
     11 C9         -0.1393    0.0036    4.7965 C.2       1 <0>        -0.4482
     12 C10        -0.1351   -0.6729    5.9791 C.2       1 <0>         0.2888
     13 N2         -0.2879   -0.0366    7.1392 N.2       1 <0>        -0.6755
     14 C11        -0.6943    1.2209    7.1927 C.2       1 <0>         0.3650
     15 N3         -1.0015    1.8861    6.0330 N.2       1 <0>        -0.6617
     16 C12        -0.2739    1.5093    4.8079 C.3       1 <0>         0.2526
     17 H1         -0.8344    1.8362    3.9321 H         1 <0>         0.0788
     18 C13         1.0931    2.1435    4.8058 C.2       1 <0>         0.0371
     19 C14         1.7194    2.6589    3.7327 C.2       1 <0>        -0.2479
     20 C15         2.9692    3.1442    4.1818 C.2       1 <0>        -0.2097
     21 C16         3.0318    2.8962    5.5024 C.2       1 <0>        -0.0473
     22 O2          1.8903    2.2953    5.8759 O.3       1 <0>        -0.1558
     23 C17         4.1848    3.2397    6.4099 C.3       1 <0>        -0.0642
     24 S1         -0.8410    2.0381    8.7469 S.3       1 <0>        -0.0812
     25 C18        -0.3372    0.7805    9.9532 C.3       1 <0>        -0.1248
     26 C19         0.0452   -2.1691    5.9745 C.3       1 <0>        -0.1044
     27 H2         -1.1179    1.7923   -0.0602 H         1 <0>         0.0660
     28 H3         -2.5166    0.7778   -0.4876 H         1 <0>         0.0657
     29 H4         -2.0526    0.9807    1.2188 H         1 <0>         0.0646
     30 H5         -1.2321   -0.6660   -1.9598 H         1 <0>         0.1172
     31 H6          0.2426   -2.6288   -2.1293 H         1 <0>         0.1142
     32 H7          1.5304   -3.3795   -0.1708 H         1 <0>         0.1172
     33 H8          1.3468   -2.1682    1.9635 H         1 <0>         0.1433
     34 H9         -0.3118    0.9243    2.4095 H         1 <0>         0.4017
     35 H10         1.3406    2.6947    2.7219 H         1 <0>         0.1327
     36 H11         3.7281    3.6219    3.5799 H         1 <0>         0.1351
     37 H12         4.0387    4.2387    6.8208 H         1 <0>         0.0727
     38 H13         4.2350    2.5160    7.2234 H         1 <0>         0.0694
     39 H14         5.1147    3.2129    5.8419 H         1 <0>         0.0784
     40 H15        -0.3956    1.1974   10.9586 H         1 <0>         0.0897
     41 H16        -1.0004   -0.0813    9.8781 H         1 <0>         0.0792
     42 H17         0.6872    0.4696    9.7477 H         1 <0>         0.0784
     43 H18         1.1081   -2.4068    5.9320 H         1 <0>         0.0631
     44 H19        -0.3851   -2.5897    6.8834 H         1 <0>         0.0430
     45 H20        -0.4570   -2.5929    5.1048 H         1 <0>         0.0999
@<TRIPOS>BOND
     1    1    2 1
     2    1   27 1
     3    1   28 1
     4    1   29 1
     5    2    7 ar
     6    2    3 ar
     7    3    4 ar
     8    3   30 1
     9    4    5 ar
    10    4   31 1
    11    5    6 ar
    12    5   32 1
    13    6    7 ar
    14    6   33 1
    15    7    8 1
    16    8    9 am
    17    8   34 1
    18    9   10 2
    19    9   11 1
    20   11   16 1
    21   11   12 2
    22   12   13 1
    23   12   26 1
    24   13   14 2
    25   14   15 1
    26   14   24 1
    27   15   16 1
    28   16   17 1
    29   16   18 1
    30   18   22 1
    31   18   19 2
    32   19   20 1
    33   19   35 1
    34   20   21 2
    35   20   36 1
    36   21   22 1
    37   21   23 1
    38   23   37 1
    39   23   38 1
    40   23   39 1
    41   24   25 1
    42   25   40 1
    43   25   41 1
    44   25   42 1
    45   26   43 1
    46   26   44 1
    47   26   45 1
@<TRIPOS>MOLECULE
ZINC61193679
   42    43     0     0     0
SMALL
USER_CHARGES

@<TRIPOS>ATOM
      1 C1         -0.0187    1.5258    0.0104 C.3       1 <0>        -0.1658
      2 C2          0.0021   -0.0041    0.0020 C.3       1 <0>         0.1687
      3 C3          0.7421   -0.5109    1.2415 C.3       1 <0>        -0.1654
      4 C4         -1.4333   -0.5336    0.0129 C.3       1 <0>        -0.1544
      5 N1          0.6878   -0.4765   -1.2033 N.am      1 <0>        -0.7246
      6 C5          1.9715   -0.1323   -1.4270 C.2       1 <0>         0.5661
      7 O1          2.5603    0.5702   -0.6287 O.2       1 <0>        -0.5250
      8 C6          2.6635   -0.6091   -2.6434 C.ar      1 <0>        -0.1664
      9 C7          1.9884   -1.4112   -3.5651 C.ar      1 <0>        -0.0512
     10 C8          2.6397   -1.8523   -4.6982 C.ar      1 <0>        -0.1521
     11 C9          3.9595   -1.5017   -4.9220 C.ar      1 <0>         0.0039
     12 C10         4.6343   -0.7071   -4.0126 C.ar      1 <0>        -0.6206
     13 C11         3.9927   -0.2544   -2.8780 C.ar      1 <0>         0.0394
     14 S1          6.3149   -0.2670   -4.3069 S.o2      1 <0>         2.6005
     15 O2          6.8847    0.0305   -3.0397 O.2       1 <0>        -1.0232
     16 O3          6.8504   -1.2622   -5.1684 O.2       1 <0>        -1.0269
     17 N2          6.3070    1.1485   -5.1664 N.2       1 <0>        -1.0703
     18 C12         7.5139    1.7420   -5.5462 C.ar      1 <0>         0.2875
     19 C13         8.7206    1.1432   -5.2088 C.ar      1 <0>        -0.2564
     20 C14         9.9116    1.7320   -5.5861 C.ar      1 <0>        -0.0625
     21 C15         9.9041    2.9171   -6.2989 C.ar      1 <0>        -0.2184
     22 C16         8.7049    3.5167   -6.6369 C.ar      1 <0>        -0.0705
     23 C17         7.5092    2.9301   -6.2676 C.ar      1 <0>        -0.0937
     24 Cl1         6.0037    3.6798   -6.6979 Cl        1 <0>        -0.0922
     25 H1          1.0039    1.9031    0.0027 H         1 <0>         0.0809
     26 H2         -0.5459    1.8868   -0.8726 H         1 <0>         0.0541
     27 H3         -0.5289    1.8773    0.9072 H         1 <0>         0.0619
     28 H4          0.2319   -0.1594    2.1383 H         1 <0>         0.0621
     29 H5          0.7568   -1.6008    1.2356 H         1 <0>         0.0533
     30 H6          1.7647   -0.1336    1.2338 H         1 <0>         0.0806
     31 H7         -1.9605   -0.1726   -0.8702 H         1 <0>         0.0616
     32 H8         -1.4185   -1.6235    0.0069 H         1 <0>         0.0611
     33 H9         -1.9435   -0.1821    0.9097 H         1 <0>         0.0733
     34 H10         0.2179   -1.0371   -1.8404 H         1 <0>         0.3970
     35 H11         0.9586   -1.6861   -3.3912 H         1 <0>         0.1259
     36 H12         2.1186   -2.4729   -5.4121 H         1 <0>         0.1338
     37 H13         4.4651   -1.8503   -5.8104 H         1 <0>         0.1424
     38 H14         4.5193    0.3693   -2.1709 H         1 <0>         0.1499
     39 H15         8.7277    0.2180   -4.6516 H         1 <0>         0.1040
     40 H16        10.8502    1.2665   -5.3238 H         1 <0>         0.1075
     41 H17        10.8370    3.3755   -6.5919 H         1 <0>         0.1100
     42 H18         8.7025    4.4423   -7.1933 H         1 <0>         0.1142
@<TRIPOS>BOND
     1    1    2 1
     2    1   25 1
     3    1   26 1
     4    1   27 1
     5    2    3 1
     6    2    4 1
     7    2    5 1
     8    3   28 1
     9    3   29 1
    10    3   30 1
    11    4   31 1
    12    4   32 1
    13    4   33 1
    14    5    6 am
    15    5   34 1
    16    6    7 2
    17    6    8 1
    18    8   13 ar
    19    8    9 ar
    20    9   10 ar
    21    9   35 1
    22   10   11 ar
    23   10   36 1
    24   11   12 ar
    25   11   37 1
    26   12   13 ar
    27   12   14 1
    28   13   38 1
    29   14   15 2
    30   14   16 2
    31   14   17 1
    32   17   18 1
    33   18   23 ar
    34   18   19 ar
    35   19   20 ar
    36   19   39 1
    37   20   21 ar
    38   20   40 1
    39   21   22 ar
    40   21   41 1
    41   22   23 ar
    42   22   42 1
    43   23   24 1
@<TRIPOS>MOLECULE
ZINC66651062
   45    46     0     0     0
SMALL
USER_CHARGES

@<TRIPOS>ATOM
      1 C1          0.3805    0.9991   -0.1279 C.3       1 <0>        -0.1129
      2 C2          0.1524   -0.4794    0.0546 C.ar      1 <0>        -0.0891
      3 C3          0.2378   -1.0416    1.3148 C.ar      1 <0>        -0.1226
      4 C4          0.0286   -2.3975    1.4822 C.ar      1 <0>        -0.1055
      5 C5         -0.2665   -3.1915    0.3896 C.ar      1 <0>        -0.0817
      6 C6         -0.3528   -2.6293   -0.8701 C.ar      1 <0>        -0.0766
      7 C7         -0.1477   -1.2723   -1.0370 C.ar      1 <0>        -0.1195
      8 C8         -0.6740   -3.4949   -2.0612 C.3       1 <0>        -0.1181
      9 C9         -0.4936   -4.6701    0.5720 C.3       1 <0>        -0.0886
     10 C10        -1.9962   -4.9584    0.5780 C.3       1 <0>         0.1503
     11 H1         -2.4472   -4.5549   -0.3286 H         1 <0>         0.0882
     12 C11        -2.2253   -6.4701    0.6325 C.3       1 <0>        -0.1629
     13 N1         -2.6094   -4.3290    1.7502 N.am      1 <0>        -0.7380
     14 C12        -3.9110   -3.9801    1.7242 C.2       1 <0>         0.5756
     15 O1         -4.5764   -4.1877    0.7275 O.2       1 <0>        -0.5145
     16 C13        -4.5274   -3.3475    2.9025 C.ar      1 <0>        -0.3078
     17 C14        -3.7692   -3.0994    4.0509 C.ar      1 <0>         0.0524
     18 C15        -4.3979   -2.4976    5.1415 C.ar      1 <0>        -0.2203
     19 C16        -5.7644   -2.1642    5.0461 C.ar      1 <0>         0.2524
     20 N2         -6.4477   -2.4166    3.9394 N.ar      1 <0>        -0.5716
     21 C17        -5.8846   -2.9798    2.8851 C.ar      1 <0>         0.4736
     22 O2         -6.6249   -3.2112    1.7764 O.3       1 <0>        -0.6208
     23 S1         -6.5730   -1.4037    6.4145 S.3       1 <0>        -0.1081
     24 C18        -8.2776   -1.1675    5.8411 C.3       1 <0>        -0.1232
     25 C19        -3.6655   -2.2228    6.3410 C.1       1 <0>         0.2894
     26 N3         -3.0845   -2.0048    7.2925 N.1       1 <0>        -0.4702
     27 H2         -0.5663    1.5286   -0.0222 H         1 <0>         0.0696
     28 H3          1.0818    1.3544    0.6271 H         1 <0>         0.0637
     29 H4          0.7911    1.1835   -1.1207 H         1 <0>         0.0627
     30 H5          0.4683   -0.4213    2.1684 H         1 <0>         0.1188
     31 H6          0.0960   -2.8368    2.4665 H         1 <0>         0.1186
     32 H7         -0.2188   -0.8323   -2.0207 H         1 <0>         0.1178
     33 H8         -1.7543   -3.6139   -2.1431 H         1 <0>         0.0748
     34 H9         -0.2906   -3.0241   -2.9664 H         1 <0>         0.0619
     35 H10        -0.2092   -4.4728   -1.9355 H         1 <0>         0.0682
     36 H11        -0.0226   -5.2138   -0.2470 H         1 <0>         0.0861
     37 H12        -0.0584   -4.9905    1.5185 H         1 <0>         0.0740
     38 H13        -1.7690   -6.9384   -0.2397 H         1 <0>         0.0591
     39 H14        -1.7743   -6.8735    1.5391 H         1 <0>         0.0540
     40 H15        -3.2957   -6.6755    0.6368 H         1 <0>         0.0643
     41 H16        -2.0787   -4.1634    2.5451 H         1 <0>         0.3883
     42 H17        -2.7238   -3.3671    4.0928 H         1 <0>         0.1193
     43 H18        -8.2786   -0.5296    4.9572 H         1 <0>         0.0867
     44 H19        -8.7144   -2.1345    5.5916 H         1 <0>         0.0868
     45 H20        -8.8643   -0.6964    6.6297 H         1 <0>         0.0955
@<TRIPOS>BOND
     1    1    2 1
     2    1   27 1
     3    1   28 1
     4    1   29 1
     5    2    7 ar
     6    2    3 ar
     7    3    4 ar
     8    3   30 1
     9    4    5 ar
    10    4   31 1
    11    5    6 ar
    12    5    9 1
    13    6    7 ar
    14    6    8 1
    15    7   32 1
    16    8   33 1
    17    8   34 1
    18    8   35 1
    19    9   10 1
    20    9   36 1
    21    9   37 1
    22   10   11 1
    23   10   12 1
    24   10   13 1
    25   12   38 1
    26   12   39 1
    27   12   40 1
    28   13   14 am
    29   13   41 1
    30   14   15 2
    31   14   16 1
    32   16   21 ar
    33   16   17 ar
    34   17   18 ar
    35   17   42 1
    36   18   19 ar
    37   18   25 1
    38   19   20 ar
    39   19   23 1
    40   20   21 ar
    41   21   22 1
    42   23   24 1
    43   24   43 1
    44   24   44 1
    45   24   45 1
    46   25   26 3
@<TRIPOS>MOLECULE
ZINC04743783
   49    52     0     0     0
SMALL
USER_CHARGES
2-amino-9-[3,4-dihydroxy-5-(p-tolylsulfonyloxymethyl)tetrahydrofuran-2-yl]-1H-purin-6-one
@<TRIPOS>ATOM
      1 C1         -4.9127   13.8459   -3.0382 C.3       1 <0>        -0.1276
      2 C2         -4.1322   13.1562   -1.9491 C.ar      1 <0>        -0.0236
      3 C3         -4.7983   12.4934   -0.9352 C.ar      1 <0>        -0.1416
      4 C4         -4.0824   11.8612    0.0641 C.ar      1 <0>        -0.0082
      5 C5         -2.7004   11.8909    0.0490 C.ar      1 <0>        -0.7131
      6 C6         -2.0344   12.5578   -0.9622 C.ar      1 <0>        -0.0222
      7 C7         -2.7503   13.1867   -1.9637 C.ar      1 <0>        -0.1427
      8 S1         -1.7879   11.0850    1.3228 S.o2      1 <0>         2.6977
      9 O1         -2.6495   11.0026    2.4498 O.2       1 <0>        -0.9282
     10 O2         -0.5190   11.7223    1.3788 O.2       1 <0>        -0.9624
     11 O3         -1.5371    9.6564    0.8617 O.3       1 <0>        -0.7249
     12 C8         -0.5286    9.5388   -0.1440 C.3       1 <0>         0.0770
     13 C9         -0.3618    8.0675   -0.5293 C.3       1 <0>         0.0815
     14 H1         -1.3124    7.6480   -0.8586 H         1 <0>         0.1121
     15 C10         0.7164    7.9073   -1.6312 C.3       1 <0>         0.0465
     16 H2          0.2824    8.0397   -2.6223 H         1 <0>         0.1002
     17 C11         1.1794    6.4449   -1.4217 C.3       1 <0>         0.0413
     18 H3          2.2609    6.3674   -1.5334 H         1 <0>         0.1019
     19 C12         0.7621    6.1203    0.0258 C.3       1 <0>         0.3073
     20 H4          1.6363    5.8345    0.6107 H         1 <0>         0.1476
     21 O4          0.1724    7.3096    0.5774 O.3       1 <0>        -0.3293
     22 N1         -0.2174    5.0309    0.0294 N.pl3     1 <0>        -0.4487
     23 C13        -1.5754    5.1664    0.0432 C.2       1 <0>         0.2250
     24 N2         -2.1357    3.9923    0.0428 N.2       1 <0>        -0.4197
     25 C14        -1.1749    3.0366    0.0287 C.2       1 <0>        -0.1246
     26 C15         0.0621    3.6912    0.0200 C.2       1 <0>         0.3048
     27 N3          1.1916    2.9739    0.0058 N.2       1 <0>        -0.5611
     28 C16         1.1620    1.6599   -0.0001 C.2       1 <0>         0.6031
     29 N4         -0.0111    0.9658    0.0074 N.am      1 <0>        -0.6416
     30 H5          0.0025   -0.0341    0.0062 H         1 <0>         0.4313
     31 C17        -1.1924    1.6221    0.0165 C.2       1 <0>         0.5905
     32 O5         -2.2470    1.0104    0.0186 O.2       1 <0>        -0.5052
     33 N5          2.3462    0.9668   -0.0147 N.pl3     1 <0>        -0.7474
     34 O6          0.5167    5.5740   -2.3406 O.3       1 <0>        -0.5364
     35 O7          1.7971    8.8190   -1.4237 O.3       1 <0>        -0.5431
     36 H6         -5.1138   14.8761   -2.7445 H         1 <0>         0.0819
     37 H7         -4.3332   13.8377   -3.9614 H         1 <0>         0.0740
     38 H8         -5.8557   13.3226   -3.1966 H         1 <0>         0.0748
     39 H9         -5.8779   12.4698   -0.9236 H         1 <0>         0.1360
     40 H10        -4.6027   11.3436    0.8565 H         1 <0>         0.1444
     41 H11        -0.9548   12.5848   -0.9716 H         1 <0>         0.1421
     42 H12        -2.2300   13.7049   -2.7556 H         1 <0>         0.1349
     43 H13         0.4157    9.9227    0.2418 H         1 <0>         0.1275
     44 H14        -0.8227   10.1133   -1.0223 H         1 <0>         0.1036
     45 H15        -2.1054    6.1073    0.0536 H         1 <0>         0.2151
     46 H16         2.4034    0.3875    0.7984 H         1 <0>         0.3739
     47 H17         3.1891    1.4468   -0.0202 H         1 <0>         0.3947
     48 H18         0.7428    5.7341   -3.2670 H         1 <0>         0.3891
     49 H19         2.4971    8.7568   -2.0879 H         1 <0>         0.3921
@<TRIPOS>BOND
     1    1    2 1
     2    1   36 1
     3    1   37 1
     4    1   38 1
     5    2    7 ar
     6    2    3 ar
     7    3    4 ar
     8    3   39 1
     9    4    5 ar
    10    4   40 1
    11    5    6 ar
    12    5    8 1
    13    6    7 ar
    14    6   41 1
    15    7   42 1
    16    8    9 2
    17    8   10 2
    18    8   11 1
    19   11   12 1
    20   12   13 1
    21   12   43 1
    22   12   44 1
    23   13   14 1
    24   13   21 1
    25   13   15 1
    26   15   16 1
    27   15   17 1
    28   15   35 1
    29   17   18 1
    30   17   19 1
    31   17   34 1
    32   19   20 1
    33   19   21 1
    34   19   22 1
    35   22   26 1
    36   22   23 1
    37   23   24 2
    38   23   45 1
    39   24   25 1
    40   25   31 1
    41   25   26 2
    42   26   27 1
    43   27   28 2
    44   28   29 1
    45   28   33 1
    46   29   30 1
    47   29   31 am
    48   31   32 2
    49   33   46 1
    50   33   47 1
    51   34   48 1
    52   35   49 1
@<TRIPOS>MOLECULE
ZINC17301338
   45    48     0     0     0
SMALL
USER_CHARGES
(2S,3S,4S,5R)-2-[2-amino-6-(3-methyl-5-nitro-imidazol-4-yl)sulfanyl-purin-9-yl]-5-(hydroxymethyl)tetrahydrofuran-3,4-diol
@<TRIPOS>ATOM
      1 C1          3.4115    3.8433    8.0621 C.3       1 <0>         0.0574
      2 N1          4.3173    2.7082    8.2550 N.pl3     1 <0>        -0.3832
      3 C2          5.4963    2.7305    8.9046 C.2       1 <0>         0.2209
      4 N2          6.0691    1.5380    8.8932 N.2       1 <0>        -0.4251
      5 C3          5.3115    0.6733    8.2506 C.2       1 <0>         0.1707
      6 C4          4.1183    1.4187    7.8062 C.2       1 <0>        -0.0408
      7 S1          2.7824    0.8169    6.9207 S.3       1 <0>         0.2552
      8 C5          3.3474    1.1096    5.2776 C.ar      1 <0>         0.2253
      9 C6          2.5483    0.7607    4.1624 C.ar      1 <0>        -0.0664
     10 C7          3.0639    1.0168    2.8658 C.ar      1 <0>         0.3430
     11 N3          4.2526    1.5761    2.7467 N.ar      1 <0>        -0.5729
     12 C8          4.9694    1.8871    3.8235 C.ar      1 <0>         0.6034
     13 N4          4.5387    1.6649    5.0532 N.ar      1 <0>        -0.5637
     14 N5          6.2124    2.4654    3.6495 N.pl3     1 <0>        -0.8137
     15 N6          2.0948    0.5915    1.9875 N.pl3     1 <0>        -0.4767
     16 C9          1.0661    0.1018    2.7293 C.2       1 <0>         0.2742
     17 N7          1.3414    0.2053    4.0041 N.2       1 <0>        -0.4528
     18 C10         2.1612    0.6496    0.5251 C.3       1 <0>         0.3096
     19 H1          3.1787    0.4648    0.1807 H         1 <0>         0.1527
     20 C11         1.6467    2.0176    0.0093 C.3       1 <0>         0.0809
     21 H2          1.9406    2.8228    0.6827 H         1 <0>         0.0962
     22 C12         0.1120    1.8148    0.0275 C.3       1 <0>         0.0445
     23 H3         -0.3424    2.2619   -0.8566 H         1 <0>         0.0917
     24 C13        -0.0669    0.2843    0.0103 C.3       1 <0>         0.0311
     25 H4         -0.5660   -0.0408    0.9232 H         1 <0>         0.0941
     26 O1          1.2451   -0.2985   -0.0635 O.3       1 <0>        -0.3232
     27 C14        -0.8927   -0.1293   -1.2094 C.3       1 <0>         0.0795
     28 O2         -1.1520   -1.5336   -1.1551 O.3       1 <0>        -0.5632
     29 O3         -0.4520    2.3710    1.2168 O.3       1 <0>        -0.5444
     30 O4          2.1120    2.2699   -1.3180 O.3       1 <0>        -0.5353
     31 N8          5.6000   -0.7623    8.0200 N.pl3     1 <0>         0.0128
     32 O5          4.7418   -1.5079    7.3551 O.2       1 <0>        -0.1408
     33 O6          6.7145   -1.2921    8.4799 O.3       1 <0>        -0.1435
     34 H5          2.7086    3.8926    8.8937 H         1 <0>         0.1050
     35 H6          3.9896    4.7664    8.0198 H         1 <0>         0.1105
     36 H7          2.8623    3.7155    7.1292 H         1 <0>         0.1012
     37 H8          5.9210    3.6078    9.3698 H         1 <0>         0.2341
     38 H9          6.7505    2.6999    4.4217 H         1 <0>         0.4162
     39 H10         6.5467    2.6367    2.7552 H         1 <0>         0.4175
     40 H11         0.1542   -0.3122    2.3251 H         1 <0>         0.2200
     41 H12        -1.8372    0.4148   -1.2103 H         1 <0>         0.0643
     42 H13        -0.3388    0.1029   -2.1190 H         1 <0>         0.0628
     43 H14        -1.6725   -1.8665   -1.8991 H         1 <0>         0.3871
     44 H15        -1.4030    2.2216    1.3083 H         1 <0>         0.3904
     45 H16         1.7453    3.0704   -1.7179 H         1 <0>         0.3931
@<TRIPOS>BOND
     1    1    2 1
     2    1   34 1
     3    1   35 1
     4    1   36 1
     5    2    6 1
     6    2    3 1
     7    3    4 2
     8    3   37 1
     9    4    5 1
    10    5    6 2
    11    5   31 1
    12    6    7 1
    13    7    8 1
    14    8   13 ar
    15    8    9 ar
    16    9   17 1
    17    9   10 ar
    18   10   11 ar
    19   10   15 1
    20   11   12 ar
    21   12   13 ar
    22   12   14 1
    23   14   38 1
    24   14   39 1
    25   15   16 1
    26   15   18 1
    27   16   17 2
    28   16   40 1
    29   18   19 1
    30   18   26 1
    31   18   20 1
    32   20   21 1
    33   20   22 1
    34   20   30 1
    35   22   23 1
    36   22   24 1
    37   22   29 1
    38   24   25 1
    39   24   26 1
    40   24   27 1
    41   27   28 1
    42   27   41 1
    43   27   42 1
    44   28   43 1
    45   29   44 1
    46   30   45 1
    47   31   32 2
    48   31   33 1
@<TRIPOS>MOLECULE
ZINC36378631
   70    72     0     0     0
SMALL
USER_CHARGES

@<TRIPOS>ATOM
      1 C1         -0.5391    1.6314   -0.5649 C.3       1 <0>        -0.1612
      2 C2         -0.1667    0.2060   -0.1536 C.3       1 <0>        -0.1132
      3 H1          0.6615   -0.1474   -0.7612 H         1 <0>         0.0925
      4 C3         -1.3780   -0.7112   -0.3333 C.3       1 <0>        -0.1475
      5 C4         -0.9735   -2.1426    0.0248 C.3       1 <0>         0.1130
      6 H2         -1.8916   -2.7389   -0.0789 H         1 <0>         0.0413
      7 C5         -0.4332   -2.2568    1.4487 C.3       1 <0>        -0.0368
      8 H3         -1.2799   -2.0356    2.1322 H         1 <0>         0.0780
      9 C6         -0.0078   -3.6952    1.7232 C.3       1 <0>        -0.0341
     10 C7          1.3549   -4.0335    1.1325 C.3       1 <0>        -0.0946
     11 C8          2.4119   -2.9949    1.4768 C.3       1 <0>        -0.1115
     12 C9          1.9557   -1.6039    1.0350 C.3       1 <0>        -0.1186
     13 C10         0.6549   -1.2321    1.7384 C.3       1 <0>        -0.0100
     14 C11         0.2092    0.1774    1.3247 C.3       1 <0>         0.1509
     15 C12         1.3202    1.1906    1.5994 C.3       1 <0>        -0.1517
     16 C13         2.3052    1.1973    0.4287 C.3       1 <0>        -0.0971
     17 C14         3.3749    2.2647    0.6684 C.3       1 <0>         0.1166
     18 C15         4.3736    2.3060   -0.5139 C.3       1 <0>         0.0636
     19 H4          4.1633    3.1495   -1.1714 H         1 <0>         0.0907
     20 C16         5.7294    2.4957    0.2129 C.3       1 <0>         0.2088
     21 H5          5.8843    3.5439    0.4687 H         1 <0>         0.0780
     22 O1          5.5862    1.6968    1.4069 O.3       1 <0>        -0.4004
     23 C17         4.2448    1.8929    1.8848 C.3       1 <0>         0.2230
     24 H6          4.2261    2.7020    2.6150 H         1 <0>         0.0777
     25 O2          3.7595    0.6873    2.4790 O.3       1 <0>        -0.3440
     26 C18         4.3554    0.3805    3.7411 C.3       1 <0>         0.0228
     27 O3          6.8049    2.0120   -0.5941 O.3       1 <0>        -0.3626
     28 C19         8.1004    2.2540   -0.0417 C.3       1 <0>         0.0307
     29 O4          4.3524    1.0769   -1.2425 O.3       1 <0>        -0.5275
     30 O5          2.7687    3.5445    0.8594 O.3       1 <0>        -0.5304
     31 O6         -0.9384    0.5379    2.1072 O.3       1 <0>        -0.5596
     32 C20         0.9260   -1.1277    3.2524 C.3       1 <0>        -0.1553
     33 C21        -0.0144   -4.0126    3.2248 C.3       1 <0>        -0.1521
     34 C22        -1.0316   -4.6685    1.0947 C.3       1 <0>         0.0769
     35 O7         -0.6298   -6.0152    1.3539 O.3       1 <0>        -0.5687
     36 O8         -0.0167   -2.6053   -0.9274 O.3       1 <0>        -0.5505
     37 H7          0.2740    2.3089   -0.3042 H         1 <0>         0.0701
     38 H8         -0.7102    1.6662   -1.6408 H         1 <0>         0.0535
     39 H9         -1.4465    1.9349   -0.0427 H         1 <0>         0.0512
     40 H10        -2.1904   -0.3860    0.3127 H         1 <0>         0.0765
     41 H11        -1.7058   -0.6777   -1.3732 H         1 <0>         0.0596
     42 H12         1.6761   -5.0081    1.5299 H         1 <0>         0.0527
     43 H13         1.2776   -4.1383    0.0483 H         1 <0>         0.0729
     44 H14         2.6334   -3.0087    2.5403 H         1 <0>         0.0547
     45 H15         3.3391   -3.2410    0.9398 H         1 <0>         0.0517
     46 H16         2.7473   -0.8957    1.2958 H         1 <0>         0.0876
     47 H17         1.8199   -1.5907   -0.0450 H         1 <0>         0.0766
     48 H18         0.8859    2.1837    1.7146 H         1 <0>         0.0647
     49 H19         1.8450    0.9153    2.5143 H         1 <0>         0.1023
     50 H20         2.7796    0.2193    0.3474 H         1 <0>         0.1176
     51 H21         1.7705    1.4197   -0.4947 H         1 <0>         0.0782
     52 H22         3.9340   -0.5483    4.1256 H         1 <0>         0.0927
     53 H23         5.4322    0.2668    3.6164 H         1 <0>         0.0506
     54 H24         4.1543    1.1890    4.4439 H         1 <0>         0.0433
     55 H25         8.8617    1.8572   -0.7134 H         1 <0>         0.0934
     56 H26         8.2482    3.3268    0.0816 H         1 <0>         0.0446
     57 H27         8.1796    1.7624    0.9279 H         1 <0>         0.0530
     58 H28         4.9616    1.0540   -1.9931 H         1 <0>         0.3888
     59 H29         3.4006    4.2597    1.0156 H         1 <0>         0.3759
     60 H30        -1.2848    1.4198    1.9141 H         1 <0>         0.3682
     61 H31         1.4391   -2.0273    3.5925 H         1 <0>         0.0593
     62 H32         1.5502   -0.2565    3.4505 H         1 <0>         0.0656
     63 H33        -0.0197   -1.0257    3.7847 H         1 <0>         0.0566
     64 H34        -1.0251   -3.8970    3.6162 H         1 <0>         0.0462
     65 H35         0.3206   -5.0380    3.3808 H         1 <0>         0.0616
     66 H36         0.6567   -3.3282    3.7437 H         1 <0>         0.0653
     67 H37        -2.0151   -4.4926    1.5303 H         1 <0>         0.0347
     68 H38        -1.0762   -4.5035    0.0181 H         1 <0>         0.0503
     69 H39        -1.2274   -6.6814    0.9876 H         1 <0>         0.3746
     70 H40        -0.3411   -2.6146   -1.8383 H         1 <0>         0.3682
@<TRIPOS>BOND
     1    1    2 1
     2    1   37 1
     3    1   38 1
     4    1   39 1
     5    2    3 1
     6    2   14 1
     7    2    4 1
     8    4    5 1
     9    4   40 1
    10    4   41 1
    11    5    6 1
    12    5    7 1
    13    5   36 1
    14    7    8 1
    15    7   13 1
    16    7    9 1
    17    9   10 1
    18    9   33 1
    19    9   34 1
    20   10   11 1
    21   10   42 1
    22   10   43 1
    23   11   12 1
    24   11   44 1
    25   11   45 1
    26   12   13 1
    27   12   46 1
    28   12   47 1
    29   13   14 1
    30   13   32 1
    31   14   15 1
    32   14   31 1
    33   15   16 1
    34   15   48 1
    35   15   49 1
    36   16   17 1
    37   16   50 1
    38   16   51 1
    39   17   23 1
    40   17   18 1
    41   17   30 1
    42   18   19 1
    43   18   20 1
    44   18   29 1
    45   20   21 1
    46   20   22 1
    47   20   27 1
    48   22   23 1
    49   23   24 1
    50   23   25 1
    51   25   26 1
    52   26   52 1
    53   26   53 1
    54   26   54 1
    55   27   28 1
    56   28   55 1
    57   28   56 1
    58   28   57 1
    59   29   58 1
    60   30   59 1
    61   31   60 1
    62   32   61 1
    63   32   62 1
    64   32   63 1
    65   33   64 1
    66   33   65 1
    67   33   66 1
    68   34   35 1
    69   34   67 1
    70   34   68 1
    71   35   69 1
    72   36   70 1
@<TRIPOS>MOLECULE
ZINC38178778
   49    52     0     0     0
SMALL
USER_CHARGES

@<TRIPOS>ATOM
      1 C1         -0.0166    1.3749    0.0096 C.ar      1 <0>        -0.1356
      2 C2          1.1693    2.0891    0.0021 C.ar      1 <0>        -0.0896
      3 C3          2.3833    1.4281   -0.0134 C.ar      1 <0>        -0.1528
      4 C4          2.4203    0.0436   -0.0216 C.ar      1 <0>         0.1464
      5 C5          1.2223   -0.6836   -0.0136 C.ar      1 <0>        -0.0776
      6 C6          0.0021   -0.0041    0.0020 C.ar      1 <0>        -0.0787
      7 C7          1.2498   -2.1571   -0.0227 C.2       1 <0>         0.0786
      8 N1          2.3861   -2.7851   -0.0382 N.2       1 <0>        -0.1638
      9 N2          2.4123   -4.1859   -0.0469 N.pl3     1 <0>        -0.5488
     10 C8          3.6219   -4.8544   -0.0633 C.2       1 <0>         0.5111
     11 N3          4.7999   -4.2832   -0.0664 N.2       1 <0>        -0.4212
     12 C9          5.7623   -5.2411   -0.0840 C.2       1 <0>        -0.1195
     13 C10         7.1754   -5.2127   -0.0951 C.2       1 <0>         0.5936
     14 O1          7.7790   -4.1529   -0.0881 O.2       1 <0>        -0.5059
     15 N4          7.8413   -6.3884   -0.1131 N.am      1 <0>        -0.6544
     16 H1          8.8113   -6.3937   -0.1207 H         1 <0>         0.4195
     17 C11         7.1566   -7.5669   -0.1203 C.2       1 <0>         0.6502
     18 N5          5.8429   -7.6062   -0.1106 N.2       1 <0>        -0.5709
     19 C12         5.1173   -6.4820   -0.0922 C.2       1 <0>         0.3172
     20 N6          3.7715   -6.2157   -0.0730 N.pl3     1 <0>        -0.4655
     21 C13         2.6921   -7.2062   -0.0678 C.3       1 <0>         0.3085
     22 H2          3.0765   -8.1853   -0.3539 H         1 <0>         0.1362
     23 C14         2.0327   -7.2756    1.3327 C.3       1 <0>         0.0761
     24 H3          1.9699   -6.2867    1.7868 H         1 <0>         0.0916
     25 C15         0.6226   -7.8147    0.9681 C.3       1 <0>         0.0455
     26 H4         -0.1186   -7.4863    1.6968 H         1 <0>         0.0966
     27 C16         0.3676   -7.1615   -0.4073 C.3       1 <0>         0.0486
     28 H5         -0.2477   -6.2702   -0.2850 H         1 <0>         0.1031
     29 O2          1.6411   -6.8030   -0.9600 O.3       1 <0>        -0.3522
     30 C17        -0.3377   -8.1562   -1.3315 C.3       1 <0>         0.0666
     31 O3         -0.6740   -7.5087   -2.5602 O.3       1 <0>        -0.5621
     32 O4          0.6340   -9.2399    0.8646 O.3       1 <0>        -0.5333
     33 O5          2.7289   -8.1870    2.1851 O.3       1 <0>        -0.5217
     34 N7          7.8591   -8.7464   -0.1387 N.pl3     1 <0>        -0.8193
     35 O6          3.6128   -0.6066   -0.0378 O.3       1 <0>        -0.4697
     36 H6         -0.9603    1.8999    0.0259 H         1 <0>         0.1285
     37 H7          1.1459    3.1688    0.0081 H         1 <0>         0.1279
     38 H8          3.3043    1.9922   -0.0196 H         1 <0>         0.1322
     39 H9         -0.9253   -0.5576    0.0082 H         1 <0>         0.1299
     40 H10         0.3247   -2.7145   -0.0165 H         1 <0>         0.1166
     41 H11         1.5815   -4.6865   -0.0413 H         1 <0>         0.3912
     42 H12         0.3253   -8.9974   -1.5336 H         1 <0>         0.0664
     43 H13        -1.2467   -8.5174   -0.8505 H         1 <0>         0.0609
     44 H14        -1.1250   -8.0812   -3.1958 H         1 <0>         0.3859
     45 H15        -0.2238   -9.6247    0.6386 H         1 <0>         0.3844
     46 H16         2.3512   -8.2626    3.0721 H         1 <0>         0.3895
     47 H17         8.8290   -8.7332   -0.1464 H         1 <0>         0.4169
     48 H18         7.3856   -9.5930   -0.1440 H         1 <0>         0.4289
     49 H19         3.9673   -0.7999    0.8408 H         1 <0>         0.3936
@<TRIPOS>BOND
     1    1    6 ar
     2    1    2 ar
     3    1   36 1
     4    2    3 ar
     5    2   37 1
     6    3    4 ar
     7    3   38 1
     8    4    5 ar
     9    4   35 1
    10    5    6 ar
    11    5    7 1
    12    6   39 1
    13    7    8 2
    14    7   40 1
    15    8    9 1
    16    9   10 1
    17    9   41 1
    18   10   20 1
    19   10   11 2
    20   11   12 1
    21   12   19 2
    22   12   13 1
    23   13   14 2
    24   13   15 am
    25   15   16 1
    26   15   17 1
    27   17   18 2
    28   17   34 1
    29   18   19 1
    30   19   20 1
    31   20   21 1
    32   21   22 1
    33   21   29 1
    34   21   23 1
    35   23   24 1
    36   23   25 1
    37   23   33 1
    38   25   26 1
    39   25   27 1
    40   25   32 1
    41   27   28 1
    42   27   29 1
    43   27   30 1
    44   30   31 1
    45   30   42 1
    46   30   43 1
    47   31   44 1
    48   32   45 1
    49   33   46 1
    50   34   47 1
    51   34   48 1
    52   35   49 1
@<TRIPOS>MOLECULE
ZINC64403635
   48    50     0     0     0
SMALL
USER_CHARGES

@<TRIPOS>ATOM
      1 C1          2.6551   -0.6631   -0.0597 C.3       1 <0>        -0.1168
      2 C2          2.1464   -0.0338   -1.3605 C.3       1 <0>         0.1080
      3 N1          2.1282    1.4269   -1.2037 N.am      1 <0>        -0.6134
      4 C3          1.4117    2.0057   -0.0589 C.3       1 <0>         0.1150
      5 C4          1.9287    1.3536    1.2272 C.3       1 <0>        -0.1254
      6 C5          1.8020   -0.1671    1.1100 C.3       1 <0>        -0.1087
      7 C6          2.2781   -0.8105    2.3869 C.2       1 <0>         0.5208
      8 O1          3.2078   -1.5888    2.3638 O.2       1 <0>        -0.5399
      9 N2          1.6706   -0.5209    3.5546 N.am      1 <0>        -0.8563
     10 C7          2.7572    2.2209   -2.0927 C.2       1 <0>         0.5750
     11 O2          2.6576    3.4314   -2.0052 O.2       1 <0>        -0.5749
     12 C8          3.5331    1.6481   -3.1273 C.2       1 <0>        -0.3506
     13 C9          4.2547    2.4402   -3.9467 C.2       1 <0>         0.2515
     14 N3          4.3383    3.7722   -3.7483 N.pl3     1 <0>        -0.7093
     15 C10         5.5191    4.4599   -4.3158 C.3       1 <0>         0.4282
     16 H1          6.3530    4.4564   -3.6139 H         1 <0>         0.1333
     17 S1          5.8663    3.3798   -5.7707 S.3       1 <0>        -0.2902
     18 C11         5.0171    1.8732   -5.1336 C.3       1 <0>        -0.0429
     19 N4          5.1882    5.8244   -4.7339 N.am      1 <0>        -0.7037
     20 C12         6.1730    6.7081   -4.9903 C.2       1 <0>         0.5899
     21 O3          7.3326    6.4032   -4.7851 O.2       1 <0>        -0.5303
     22 C13         5.8455    8.0414   -5.5182 C.2       1 <0>        -0.2840
     23 C14         6.8567    8.9204   -5.9007 C.2       1 <0>         0.0758
     24 C15         6.5077   10.1763   -6.3968 C.2       1 <0>        -0.2421
     25 C16         5.2009   10.5285   -6.5019 C.2       1 <0>         0.1715
     26 N5          4.2128    9.6794   -6.1316 N.am      1 <0>        -0.5981
     27 C17         4.4943    8.4529   -5.6524 C.2       1 <0>         0.5335
     28 O4          3.5912    7.7007   -5.3295 O.2       1 <0>        -0.5437
     29 H2          2.5829   -1.7486   -0.1281 H         1 <0>         0.0850
     30 H3          3.6945   -0.3766    0.1008 H         1 <0>         0.0771
     31 H4          2.8100   -0.3050   -2.1816 H         1 <0>         0.0968
     32 H5          1.1381   -0.3915   -1.5695 H         1 <0>         0.0703
     33 H6          1.5906    3.0802   -0.0213 H         1 <0>         0.0965
     34 H7          0.3435    1.8144   -0.1618 H         1 <0>         0.0682
     35 H8          2.9749    1.6211    1.3757 H         1 <0>         0.0740
     36 H9          1.3394    1.7035    2.0748 H         1 <0>         0.0792
     37 H10         0.7590   -0.4323    0.9369 H         1 <0>         0.1012
     38 H11         0.9269    0.1017    3.5732 H         1 <0>         0.4014
     39 H12         1.9770   -0.9350    4.3765 H         1 <0>         0.4022
     40 H13         3.5478    0.5765   -3.2612 H         1 <0>         0.1439
     41 H14         3.6563    4.2563   -3.2569 H         1 <0>         0.4330
     42 H15         5.7383    1.1214   -4.8130 H         1 <0>         0.1278
     43 H16         4.3344    1.4657   -5.8793 H         1 <0>         0.1326
     44 H17         4.2604    6.0918   -4.8263 H         1 <0>         0.4239
     45 H18         7.8944    8.6338   -5.8141 H         1 <0>         0.1546
     46 H19         7.2787   10.8702   -6.6977 H         1 <0>         0.1601
     47 H20         4.9443   11.5041   -6.8877 H         1 <0>         0.1765
     48 H21         3.2875    9.9577   -6.2170 H         1 <0>         0.4235
@<TRIPOS>BOND
     1    1    6 1
     2    1    2 1
     3    1   29 1
     4    1   30 1
     5    2    3 1
     6    2   31 1
     7    2   32 1
     8    3    4 1
     9    3   10 am
    10    4    5 1
    11    4   33 1
    12    4   34 1
    13    5    6 1
    14    5   35 1
    15    5   36 1
    16    6    7 1
    17    6   37 1
    18    7    8 2
    19    7    9 am
    20    9   38 1
    21    9   39 1
    22   10   11 2
    23   10   12 1
    24   12   40 1
    25   12   13 2
    26   13   18 1
    27   13   14 1
    28   14   15 1
    29   14   41 1
    30   15   16 1
    31   15   17 1
    32   15   19 1
    33   17   18 1
    34   18   42 1
    35   18   43 1
    36   19   20 am
    37   19   44 1
    38   20   21 2
    39   20   22 1
    40   22   27 1
    41   22   23 2
    42   23   24 1
    43   23   45 1
    44   24   25 2
    45   24   46 1
    46   25   26 1
    47   25   47 1
    48   26   27 am
    49   26   48 1
    50   27   28 2
@<TRIPOS>MOLECULE
ZINC33637010
   29    30     0     0     0
SMALL
USER_CHARGES
5-chloro-N-(3,4-dichlorophenyl)-1,3-dimethyl-pyrazole-4-sulfonamide
@<TRIPOS>ATOM
      1 C1          0.3766    3.7533   -1.5315 C.3       1 <0>        -0.0979
      2 C2          1.1381    4.6928   -0.6322 C.2       1 <0>         0.1650
      3 C3          2.5087    4.6361   -0.3595 C.2       1 <0>        -0.7711
      4 C4          2.8078    5.6530    0.4840 C.2       1 <0>         0.2169
      5 N1          1.6649    6.3243    0.7396 N.pl3     1 <0>        -0.3659
      6 N2          0.6305    5.7002    0.0306 N.2       1 <0>        -0.2919
      7 C5          1.5302    7.4982    1.6056 C.3       1 <0>         0.0887
      8 Cl1         4.3786    6.0253    1.1225 Cl        1 <0>         0.0245
      9 S1          3.6464    3.4556   -1.0050 S.o2      1 <0>         2.6210
     10 O1          4.9468    3.9904   -0.7997 O.2       1 <0>        -1.0283
     11 O2          3.1670    3.0912   -2.2921 O.2       1 <0>        -0.9915
     12 N3          3.5367    2.1014   -0.0582 N.2       1 <0>        -1.0692
     13 C6          3.8610    2.1699    1.2993 C.ar      1 <0>         0.2553
     14 C7          5.0229    2.8141    1.7055 C.ar      1 <0>        -0.1985
     15 C8          5.3413    2.8810    3.0476 C.ar      1 <0>        -0.0725
     16 C9          4.5043    2.3071    3.9883 C.ar      1 <0>        -0.1015
     17 C10         3.3454    1.6642    3.5868 C.ar      1 <0>        -0.0012
     18 C11         3.0222    1.5945    2.2446 C.ar      1 <0>        -0.1469
     19 Cl2         2.2981    0.9449    4.7698 Cl        1 <0>        -0.0852
     20 Cl3         4.9075    2.3937    5.6746 Cl        1 <0>        -0.0927
     21 H1          1.0672    3.0069   -1.9510 H         1 <0>         0.1111
     22 H2         -0.0873    4.3241   -2.3494 H         1 <0>         0.0786
     23 H3         -0.4059    3.2432   -0.9505 H         1 <0>         0.0798
     24 H4          0.4800    7.8252    1.6192 H         1 <0>         0.1006
     25 H5          2.1627    8.3119    1.2212 H         1 <0>         0.0820
     26 H6          1.8467    7.2388    2.6266 H         1 <0>         0.0838
     27 H7          5.6766    3.2627    0.9721 H         1 <0>         0.1540
     28 H8          6.2423    3.3857    3.3637 H         1 <0>         0.1221
     29 H9          2.1186    1.0928    1.9314 H         1 <0>         0.1308
@<TRIPOS>BOND
     1    1    2 1
     2    1   21 1
     3    1   22 1
     4    1   23 1
     5    2    6 2
     6    2    3 1
     7    3    4 2
     8    3    9 1
     9    4    5 1
    10    4    8 1
    11    5    6 1
    12    5    7 1
    13    7   24 1
    14    7   25 1
    15    7   26 1
    16    9   10 2
    17    9   11 2
    18    9   12 1
    19   12   13 1
    20   13   18 ar
    21   13   14 ar
    22   14   15 ar
    23   14   27 1
    24   15   16 ar
    25   15   28 1
    26   16   17 ar
    27   16   20 1
    28   17   18 ar
    29   17   19 1
    30   18   29 1
@<TRIPOS>MOLECULE
ZINC38107429
   29    30     0     0     0
SMALL
USER_CHARGES

@<TRIPOS>ATOM
      1 C1         -0.0167    1.3775    0.0096 C.ar      1 <0>        -0.0340
      2 C2          1.1687    2.0872    0.0021 C.ar      1 <0>        -0.2802
      3 C3          2.3831    1.4125   -0.0135 C.ar      1 <0>         0.3051
      4 C4          2.4036    0.0243   -0.0211 C.ar      1 <0>        -0.1941
      5 C5          1.2124   -0.6837   -0.0131 C.ar      1 <0>         0.1341
      6 C6          0.0021   -0.0041    0.0020 C.ar      1 <0>        -0.2865
      7 O1          1.2291   -2.0425   -0.0210 O.3       1 <0>        -0.3256
      8 C7         -0.0361   -2.7069   -0.0119 C.3       1 <0>         0.4128
      9 F1         -0.7440   -2.3463    1.1396 F         1 <0>        -0.2028
     10 F2         -0.7671   -2.3333   -1.1448 F         1 <0>        -0.2027
     11 N1          3.5815    2.1297   -0.0220 N.2       1 <0>        -1.0850
     12 S1          3.5556    3.7854   -0.0135 S.o2      1 <0>         2.6088
     13 O2          2.9860    4.1891   -1.2512 O.2       1 <0>        -1.0201
     14 O3          3.0111    4.1766    1.2394 O.2       1 <0>        -1.0214
     15 C8          5.2304    4.3327   -0.0277 C.ar      1 <0>        -0.6685
     16 C9          5.9115    4.5393    1.1629 C.ar      1 <0>         0.0336
     17 C10         7.2273    4.9699    1.1042 C.ar      1 <0>        -0.1793
     18 C11         7.8139    5.1781   -0.1318 C.ar      1 <0>         0.2071
     19 N2          7.1348    4.9711   -1.2440 N.ar      1 <0>        -0.4946
     20 C12         5.8829    4.5558   -1.2247 C.ar      1 <0>         0.2130
     21 Cl1         9.4615    5.7181   -0.2200 Cl        1 <0>        -0.0338
     22 H1         -0.9597    1.9036    0.0259 H         1 <0>         0.1098
     23 H2          1.1513    3.1670    0.0080 H         1 <0>         0.1014
     24 H3          3.3462   -0.5028   -0.0336 H         1 <0>         0.1237
     25 H4         -0.9262   -0.5560    0.0082 H         1 <0>         0.1153
     26 H5          0.1200   -3.7856   -0.0196 H         1 <0>         0.1713
     27 H6          5.4276    4.3689    2.1133 H         1 <0>         0.1601
     28 H7          7.7877    5.1412    2.0114 H         1 <0>         0.1511
     29 H8          5.3604    4.3928   -2.1557 H         1 <0>         0.1812
@<TRIPOS>BOND
     1    1    6 ar
     2    1    2 ar
     3    1   22 1
     4    2    3 ar
     5    2   23 1
     6    3    4 ar
     7    3   11 1
     8    4    5 ar
     9    4   24 1
    10    5    6 ar
    11    5    7 1
    12    6   25 1
    13    7    8 1
    14    8    9 1
    15    8   10 1
    16    8   26 1
    17   11   12 1
    18   12   13 2
    19   12   14 2
    20   12   15 1
    21   15   20 ar
    22   15   16 ar
    23   16   17 ar
    24   16   27 1
    25   17   18 ar
    26   17   28 1
    27   18   19 ar
    28   18   21 1
    29   19   20 ar
    30   20   29 1
@<TRIPOS>MOLECULE
ZINC55619021
   38    40     0     0     0
SMALL
USER_CHARGES

@<TRIPOS>ATOM
      1 C1         -0.0184    1.5028    0.0103 C.3       1 <0>        -0.1060
      2 C2          0.0021   -0.0041    0.0020 C.ar      1 <0>        -0.1502
      3 C3          0.0058   -0.6813   -1.1844 C.ar      1 <0>        -0.0617
      4 C4          0.0256   -2.0879   -1.1460 C.ar      1 <0>        -0.1197
      5 C5          0.0311   -2.8518   -2.3244 C.ar      1 <0>        -0.0626
      6 C6          0.0508   -4.2107   -2.2451 C.ar      1 <0>        -0.1388
      7 C7          0.0651   -4.8548   -1.0093 C.ar      1 <0>        -0.0084
      8 C8          0.0599   -4.1460    0.1522 C.ar      1 <0>        -0.5914
      9 C9          0.0407   -2.7407    0.1117 C.ar      1 <0>         0.1986
     10 N1          0.0366   -2.0182    1.2361 N.ar      1 <0>        -0.4412
     11 C10         0.0230   -0.7076    1.2040 C.ar      1 <0>         0.1443
     12 S1          0.0772   -4.9861    1.7009 S.o2      1 <0>         2.6138
     13 O1         -0.9533   -4.4062    2.4890 O.2       1 <0>        -1.0097
     14 O2          0.1220   -6.3759    1.4086 O.2       1 <0>        -1.0371
     15 N2          1.5088   -4.6124    2.4447 N.2       1 <0>        -1.0737
     16 C11         1.8019   -5.1439    3.7054 C.ar      1 <0>         0.2839
     17 C12         0.8949   -5.9893    4.3307 C.ar      1 <0>        -0.2405
     18 C13         1.1840   -6.5142    5.5755 C.ar      1 <0>        -0.1166
     19 C14         2.3794   -6.1971    6.2018 C.ar      1 <0>        -0.0230
     20 C15         3.2879   -5.3518    5.5780 C.ar      1 <0>         0.1142
     21 C16         3.0021   -4.8308    4.3292 C.ar      1 <0>        -0.1878
     22 F1          4.4526   -5.0427    6.1887 F         1 <0>        -0.1482
     23 O3          2.6626   -6.7139    7.4281 O.3       1 <0>        -0.3236
     24 C17         1.6830   -7.5756    8.0110 C.3       1 <0>         0.0340
     25 H1          1.0042    1.8801    0.0026 H         1 <0>         0.0723
     26 H2         -0.5455    1.8639   -0.8728 H         1 <0>         0.0654
     27 H3         -0.5286    1.8543    0.9071 H         1 <0>         0.0707
     28 H4         -0.0065   -0.1519   -2.1257 H         1 <0>         0.1358
     29 H5          0.0194   -2.3641   -3.2879 H         1 <0>         0.1316
     30 H6          0.0550   -4.7974   -3.1519 H         1 <0>         0.1328
     31 H7          0.0803   -5.9341   -0.9730 H         1 <0>         0.1462
     32 H8          0.0240   -0.1589    2.1342 H         1 <0>         0.1603
     33 H9         -0.0370   -6.2363    3.8439 H         1 <0>         0.1051
     34 H10         0.4781   -7.1716    6.0612 H         1 <0>         0.1184
     35 H11         3.7102   -4.1772    3.8415 H         1 <0>         0.1311
     36 H12         2.0329   -7.9171    8.9851 H         1 <0>         0.0879
     37 H13         0.7462   -7.0315    8.1317 H         1 <0>         0.0470
     38 H14         1.5225   -8.4356    7.3607 H         1 <0>         0.0469
@<TRIPOS>BOND
     1    1    2 1
     2    1   25 1
     3    1   26 1
     4    1   27 1
     5    2   11 ar
     6    2    3 ar
     7    3    4 ar
     8    3   28 1
     9    4    9 ar
    10    4    5 ar
    11    5    6 ar
    12    5   29 1
    13    6    7 ar
    14    6   30 1
    15    7    8 ar
    16    7   31 1
    17    8    9 ar
    18    8   12 1
    19    9   10 ar
    20   10   11 ar
    21   11   32 1
    22   12   13 2
    23   12   14 2
    24   12   15 1
    25   15   16 1
    26   16   21 ar
    27   16   17 ar
    28   17   18 ar
    29   17   33 1
    30   18   19 ar
    31   18   34 1
    32   19   20 ar
    33   19   23 1
    34   20   21 ar
    35   20   22 1
    36   21   35 1
    37   23   24 1
    38   24   36 1
    39   24   37 1
    40   24   38 1
@<TRIPOS>MOLECULE
ZINC63146432
   35    36     0     0     0
SMALL
USER_CHARGES

@<TRIPOS>ATOM
      1 C1         -0.0184    1.5028    0.0103 C.3       1 <0>        -0.0785
      2 C2          0.0021   -0.0041    0.0020 C.ar      1 <0>        -0.1533
      3 C3          0.0057   -0.6889   -1.1975 C.ar      1 <0>        -0.0820
      4 C4          0.0240   -2.0714   -1.2060 C.ar      1 <0>        -0.2231
      5 C5          0.0391   -2.7733   -0.0143 C.ar      1 <0>        -0.0723
      6 C6          0.0360   -2.0949    1.1884 C.ar      1 <0>        -0.2627
      7 C7          0.0230   -0.7057    1.2005 C.ar      1 <0>         0.2800
      8 N1          0.0251   -0.0163    2.4152 N.2       1 <0>        -1.0798
      9 S1          0.0500   -0.8547    3.8431 S.o2      1 <0>         2.5974
     10 O1         -1.1852   -1.5522    3.9261 O.2       1 <0>        -1.0213
     11 O2          1.3052   -1.5183    3.9025 O.2       1 <0>        -1.0169
     12 C8          0.0462    0.3329    5.1447 C.ar      1 <0>        -0.6689
     13 C9         -1.0269    0.4052    6.0068 C.ar      1 <0>         0.0639
     14 C10        -1.0286    1.3472    7.0382 C.ar      1 <0>        -0.1702
     15 C11         0.0589    2.2114    7.1898 C.ar      1 <0>         0.0023
     16 C12         1.1263    2.1302    6.3221 C.ar      1 <0>        -0.1928
     17 C13         1.1251    1.1892    5.3033 C.ar      1 <0>         0.2404
     18 F1          2.1769    1.1099    4.4591 F         1 <0>        -0.1040
     19 C14        -2.1750    1.4298    7.9642 C.2       1 <0>         0.5135
     20 O3         -3.1195    0.6776    7.8301 O.2       1 <0>        -0.4981
     21 O4         -2.1740    2.3393    8.9581 O.3       1 <0>        -0.3518
     22 C15        -3.3160    2.3632    9.8168 C.3       1 <0>         0.0348
     23 H1          1.0042    1.8801    0.0026 H         1 <0>         0.0464
     24 H2         -0.5455    1.8639   -0.8728 H         1 <0>         0.0369
     25 H3         -0.5286    1.8543    0.9071 H         1 <0>         0.0706
     26 H4         -0.0060   -0.1439   -2.1298 H         1 <0>         0.1034
     27 H5          0.0261   -2.6044   -2.1453 H         1 <0>         0.1001
     28 H6          0.0529   -3.8531   -0.0245 H         1 <0>         0.1004
     29 H7          0.0474   -2.6436    2.1185 H         1 <0>         0.0954
     30 H8         -1.8650   -0.2649    5.8848 H         1 <0>         0.1627
     31 H9          0.0627    2.9419    7.9853 H         1 <0>         0.1515
     32 H10         1.9674    2.7976    6.4384 H         1 <0>         0.1510
     33 H11        -3.1871    3.1391   10.5714 H         1 <0>         0.1023
     34 H12        -4.2089    2.5737    9.2280 H         1 <0>         0.0617
     35 H13        -3.4232    1.3950   10.3058 H         1 <0>         0.0611
@<TRIPOS>BOND
     1    1    2 1
     2    1   23 1
     3    1   24 1
     4    1   25 1
     5    2    7 ar
     6    2    3 ar
     7    3    4 ar
     8    3   26 1
     9    4    5 ar
    10    4   27 1
    11    5    6 ar
    12    5   28 1
    13    6    7 ar
    14    6   29 1
    15    7    8 1
    16    8    9 1
    17    9   10 2
    18    9   11 2
    19    9   12 1
    20   12   17 ar
    21   12   13 ar
    22   13   14 ar
    23   13   30 1
    24   14   15 ar
    25   14   19 1
    26   15   16 ar
    27   15   31 1
    28   16   17 ar
    29   16   32 1
    30   17   18 1
    31   19   20 2
    32   19   21 1
    33   21   22 1
    34   22   33 1
    35   22   34 1
    36   22   35 1
@<TRIPOS>MOLECULE
ZINC66581695
   42    44     0     0     0
SMALL
USER_CHARGES

@<TRIPOS>ATOM
      1 C1         -0.0163    1.3489    0.0095 C.2       1 <0>        -0.2855
      2 C2          1.3085    1.7974   -0.0008 C.2       1 <0>         0.0273
      3 N1          2.0941    0.7512   -0.0139 N.2       1 <0>        -0.2781
      4 N2          1.2927   -0.3978   -0.0124 N.pl3     1 <0>        -0.3546
      5 C3          0.0021   -0.0041    0.0020 C.2       1 <0>         0.0441
      6 C4          1.7713   -1.7824   -0.0249 C.3       1 <0>         0.1908
      7 C5          2.6946   -1.9842   -1.1987 C.ar      1 <0>        -0.2304
      8 C6          2.1822   -2.3880   -2.4180 C.ar      1 <0>        -0.0577
      9 C7          3.0255   -2.5739   -3.4957 C.ar      1 <0>        -0.1912
     10 C8          4.3899   -2.3548   -3.3539 C.ar      1 <0>         0.2959
     11 C9          4.9013   -1.9493   -2.1277 C.ar      1 <0>        -0.2625
     12 C10         4.0516   -1.7598   -1.0555 C.ar      1 <0>        -0.0275
     13 N3          5.2457   -2.5423   -4.4417 N.2       1 <0>        -1.0945
     14 S1          6.8719   -2.2806   -4.2706 S.o2      1 <0>         2.5271
     15 O1          6.9876   -0.8942   -3.9810 O.2       1 <0>        -1.0299
     16 O2          7.2990   -3.2554   -3.3290 O.2       1 <0>        -1.0261
     17 C11         7.5761   -2.6386   -5.9035 C.3       1 <0>        -0.5558
     18 C12         7.1677   -4.0479   -6.3372 C.3       1 <0>        -0.0939
     19 C13         7.7617   -4.3499   -7.7145 C.3       1 <0>        -0.1130
     20 C14         9.2874   -4.2604   -7.6427 C.3       1 <0>        -0.1206
     21 C15         9.6957   -2.8511   -7.2091 C.3       1 <0>        -0.1089
     22 C16         9.1018   -2.5491   -5.8318 C.3       1 <0>        -0.1087
     23 H1         -0.8980    1.9724    0.0252 H         1 <0>         0.1391
     24 H2          1.6279    2.8291    0.0017 H         1 <0>         0.1754
     25 H3         -0.8615   -0.6526    0.0071 H         1 <0>         0.1671
     26 H4          2.3093   -1.9892    0.9003 H         1 <0>         0.0801
     27 H5          0.9216   -2.4598   -0.1103 H         1 <0>         0.0919
     28 H6          1.1214   -2.5585   -2.5274 H         1 <0>         0.1003
     29 H7          2.6247   -2.8896   -4.4476 H         1 <0>         0.1108
     30 H8          5.9616   -1.7784   -2.0139 H         1 <0>         0.1000
     31 H9          4.4480   -1.4402   -0.1031 H         1 <0>         0.1008
     32 H10         7.2032   -1.9136   -6.6269 H         1 <0>         0.1213
     33 H11         7.5407   -4.7730   -5.6138 H         1 <0>         0.0692
     34 H12         6.0808   -4.1117   -6.3883 H         1 <0>         0.0894
     35 H13         7.4708   -5.3539   -8.0234 H         1 <0>         0.0619
     36 H14         7.3888   -3.6248   -8.4379 H         1 <0>         0.0609
     37 H15         9.6603   -4.9855   -6.9193 H         1 <0>         0.0617
     38 H16         9.7105   -4.4755   -8.6240 H         1 <0>         0.0584
     39 H17        10.7826   -2.7873   -7.1580 H         1 <0>         0.0616
     40 H18         9.3228   -2.1260   -7.9325 H         1 <0>         0.0625
     41 H19         9.3927   -1.5451   -5.5229 H         1 <0>         0.0681
     42 H20         9.4747   -3.2742   -5.1084 H         1 <0>         0.0728
@<TRIPOS>BOND
     1    1    5 2
     2    1    2 1
     3    1   23 1
     4    2    3 2
     5    2   24 1
     6    3    4 1
     7    4    5 1
     8    4    6 1
     9    5   25 1
    10    6    7 1
    11    6   26 1
    12    6   27 1
    13    7   12 ar
    14    7    8 ar
    15    8    9 ar
    16    8   28 1
    17    9   10 ar
    18    9   29 1
    19   10   11 ar
    20   10   13 1
    21   11   12 ar
    22   11   30 1
    23   12   31 1
    24   13   14 1
    25   14   15 2
    26   14   16 2
    27   14   17 1
    28   17   22 1
    29   17   18 1
    30   17   32 1
    31   18   19 1
    32   18   33 1
    33   18   34 1
    34   19   20 1
    35   19   35 1
    36   19   36 1
    37   20   21 1
    38   20   37 1
    39   20   38 1
    40   21   22 1
    41   21   39 1
    42   21   40 1
    43   22   41 1
    44   22   42 1
@<TRIPOS>MOLECULE
ZINC35659611
   32    32     0     0     0
SMALL
USER_CHARGES

@<TRIPOS>ATOM
      1 C1          0.6042    1.5208    0.3297 C.3       1 <0>        -0.1505
      2 C2          0.4064    0.0089    0.2040 C.3       1 <0>         0.0566
      3 O1          1.0633   -0.4610   -0.9748 O.3       1 <0>        -0.3862
      4 C3          0.9393   -1.8687   -1.1873 C.3       1 <0>         0.0811
      5 C4          1.6766   -2.2577   -2.4703 C.3       1 <0>        -0.1185
      6 S1          1.5192   -4.0446   -2.7400 S.3       1 <0>        -0.0057
      7 C5          2.4085   -4.3301   -4.2341 C.ar      1 <0>         0.1638
      8 C6          2.5057   -5.6311   -4.7776 C.ar      1 <0>        -0.1883
      9 C7          3.2255   -5.7935   -5.9664 C.ar      1 <0>         0.1924
     10 N1          3.7808   -4.7340   -6.5286 N.ar      1 <0>        -0.5282
     11 C8          3.6673   -3.5344   -5.9896 C.ar      1 <0>         0.3029
     12 N2          2.9973   -3.3243   -4.8761 N.ar      1 <0>        -0.5329
     13 C9          4.3222   -2.3636   -6.6763 C.3       1 <0>        -0.0735
     14 C10         3.3660   -7.1556   -6.5957 C.3       1 <0>        -0.0968
     15 C11         1.8703   -6.7787   -4.1140 C.2       1 <0>         0.5384
     16 O2          0.7439   -7.1276   -4.4406 O.co2     1 <0>        -0.6701
     17 O3          2.4679   -7.3850   -3.2350 O.co2     1 <0>        -0.6697
     18 H1          1.6692    1.7439    0.3938 H         1 <0>         0.0625
     19 H2          0.1810    2.0165   -0.5440 H         1 <0>         0.0624
     20 H3          0.1031    1.8793    1.2289 H         1 <0>         0.0698
     21 H4          0.8295   -0.4867    1.0778 H         1 <0>         0.0492
     22 H5         -0.6586   -0.2142    0.1400 H         1 <0>         0.0491
     23 H6          1.3735   -2.4033   -0.3424 H         1 <0>         0.0600
     24 H7         -0.1146   -2.1307   -1.2802 H         1 <0>         0.0599
     25 H8          1.2424   -1.7231   -3.3151 H         1 <0>         0.0956
     26 H9          2.7305   -1.9957   -2.3773 H         1 <0>         0.0958
     27 H10         3.6220   -1.9191   -7.3836 H         1 <0>         0.0781
     28 H11         4.6086   -1.6200   -5.9326 H         1 <0>         0.0782
     29 H12         5.2096   -2.7049   -7.2093 H         1 <0>         0.0806
     30 H13         2.4935   -7.3609   -7.2160 H         1 <0>         0.0833
     31 H14         4.2642   -7.1799   -7.2127 H         1 <0>         0.0753
     32 H15         3.4417   -7.9111   -5.8137 H         1 <0>         0.0855
@<TRIPOS>BOND
     1    1    2 1
     2    1   18 1
     3    1   19 1
     4    1   20 1
     5    2    3 1
     6    2   21 1
     7    2   22 1
     8    3    4 1
     9    4    5 1
    10    4   23 1
    11    4   24 1
    12    5    6 1
    13    5   25 1
    14    5   26 1
    15    6    7 1
    16    7   12 ar
    17    7    8 ar
    18    8    9 ar
    19    8   15 1
    20    9   10 ar
    21    9   14 1
    22   10   11 ar
    23   11   12 ar
    24   11   13 1
    25   13   27 1
    26   13   28 1
    27   13   29 1
    28   14   30 1
    29   14   31 1
    30   14   32 1
    31   15   16 2
    32   15   17 1
@<TRIPOS>MOLECULE
ZINC39941176
   40    40     0     0     0
SMALL
USER_CHARGES

@<TRIPOS>ATOM
      1 C1         -0.0187    1.5258    0.0104 C.3       1 <0>        -0.1515
      2 C2          0.0021   -0.0041    0.0020 C.3       1 <0>        -0.1159
      3 C3         -1.4333   -0.5336    0.0129 C.3       1 <0>        -0.0886
      4 H1         -1.9700   -0.1108    0.8622 H         1 <0>         0.0796
      5 C4         -2.1354   -0.1304   -1.2858 C.3       1 <0>        -0.1235
      6 C5         -3.5824   -0.6324   -1.2565 C.3       1 <0>         0.1112
      7 N1         -3.5761   -2.0787   -0.9979 N.am      1 <0>        -0.5529
      8 C6         -2.8518   -2.5832    0.1767 C.3       1 <0>         0.0825
      9 H2         -2.8446   -3.6731    0.1612 H         1 <0>         0.0946
     10 C7         -1.4130   -2.0594    0.1309 C.3       1 <0>        -0.1025
     11 C8         -3.5289   -2.1003    1.4335 C.2       1 <0>         0.4957
     12 O1         -4.5240   -1.3998    1.3592 O.co2     1 <0>        -0.6839
     13 O2         -3.0816   -2.4102    2.5245 O.co2     1 <0>        -0.6932
     14 C9         -4.2227   -2.9265   -1.8223 C.2       1 <0>         0.6497
     15 O3         -4.2099   -4.1206   -1.5976 O.2       1 <0>        -0.5841
     16 O4         -4.8827   -2.4504   -2.8948 O.3       1 <0>        -0.3610
     17 C10        -5.5457   -3.4057   -3.7253 C.3       1 <0>         0.1331
     18 C11        -6.5909   -4.1599   -2.9008 C.3       1 <0>        -0.1847
     19 C12        -6.2350   -2.6828   -4.8842 C.3       1 <0>        -0.1368
     20 C13        -4.5212   -4.3974   -4.2800 C.3       1 <0>        -0.1828
     21 H3          1.0039    1.9031    0.0027 H         1 <0>         0.0471
     22 H4         -0.5459    1.8868   -0.8726 H         1 <0>         0.0542
     23 H5         -0.5289    1.8773    0.9072 H         1 <0>         0.0545
     24 H6          0.5123   -0.3556   -0.8948 H         1 <0>         0.0557
     25 H7          0.5293   -0.3651    0.8851 H         1 <0>         0.0608
     26 H8         -2.1288    0.9554   -1.3809 H         1 <0>         0.0707
     27 H9         -1.6137   -0.5735   -2.1341 H         1 <0>         0.0566
     28 H10        -4.1302   -0.1220   -0.4643 H         1 <0>         0.0900
     29 H11        -4.0572   -0.4351   -2.2176 H         1 <0>         0.0761
     30 H12        -0.8982   -2.4841   -0.7308 H         1 <0>         0.0511
     31 H13        -0.8922   -2.3467    1.0444 H         1 <0>         0.0792
     32 H14        -7.3208   -3.4534   -2.5056 H         1 <0>         0.0581
     33 H15        -7.0966   -4.8887   -3.5343 H         1 <0>         0.0623
     34 H16        -6.0998   -4.6750   -2.0752 H         1 <0>         0.0899
     35 H17        -5.4904   -2.1455   -5.4716 H         1 <0>         0.0628
     36 H18        -6.7408   -3.4115   -5.5177 H         1 <0>         0.0744
     37 H19        -6.9650   -1.9763   -4.4890 H         1 <0>         0.0648
     38 H20        -4.0301   -4.9125   -3.4544 H         1 <0>         0.0891
     39 H21        -5.0269   -5.1261   -4.9135 H         1 <0>         0.0629
     40 H22        -3.7766   -3.8601   -4.8674 H         1 <0>         0.0548
@<TRIPOS>BOND
     1    1    2 1
     2    1   21 1
     3    1   22 1
     4    1   23 1
     5    2    3 1
     6    2   24 1
     7    2   25 1
     8    3    4 1
     9    3   10 1
    10    3    5 1
    11    5    6 1
    12    5   26 1
    13    5   27 1
    14    6    7 1
    15    6   28 1
    16    6   29 1
    17    7    8 1
    18    7   14 am
    19    8    9 1
    20    8   10 1
    21    8   11 1
    22   10   30 1
    23   10   31 1
    24   11   12 2
    25   11   13 1
    26   14   15 2
    27   14   16 1
    28   16   17 1
    29   17   18 1
    30   17   19 1
    31   17   20 1
    32   18   32 1
    33   18   33 1
    34   18   34 1
    35   19   35 1
    36   19   36 1
    37   19   37 1
    38   20   38 1
    39   20   39 1
    40   20   40 1
@<TRIPOS>MOLECULE
ZINC48480390
   28    28     0     0     0
SMALL
USER_CHARGES

@<TRIPOS>ATOM
      1 C1         -0.0225    1.8097    0.0120 C.3       1 <0>        -0.6511
      2 S1          0.0021   -0.0041    0.0020 S.o2      1 <0>         2.5663
      3 O1          0.8352   -0.4880    1.0465 O.2       1 <0>        -1.0072
      4 O2         -1.3147   -0.5105   -0.1678 O.2       1 <0>        -1.0072
      5 N1          0.7947   -0.4113   -1.3938 N.2       1 <0>        -1.0661
      6 C2          0.9770   -1.6531   -1.6935 C.2       1 <0>         0.4851
      7 O3          0.5218   -2.6197   -0.8697 O.3       1 <0>        -0.7249
      8 C3          1.6983   -2.0236   -2.9637 C.3       1 <0>        -0.0765
      9 C4          2.1057   -0.7509   -3.7087 C.3       1 <0>        -0.0698
     10 C5          2.8270   -1.1214   -4.9789 C.ar      1 <0>        -0.0363
     11 C6          4.2009   -1.2854   -4.9679 C.ar      1 <0>        -0.1209
     12 C7          4.8675   -1.6246   -6.1270 C.ar      1 <0>        -0.0676
     13 C8          4.1525   -1.8028   -7.3131 C.ar      1 <0>        -0.0528
     14 C9          2.7662   -1.6362   -7.3169 C.ar      1 <0>        -0.0676
     15 C10         2.1117   -1.3017   -6.1495 C.ar      1 <0>        -0.1209
     16 C11         4.8380   -2.1545   -8.5202 C.1       1 <0>         0.2630
     17 N2          5.3818   -2.4335   -9.4778 N.1       1 <0>        -0.4344
     18 H1          1.0001    2.1870    0.0043 H         1 <0>         0.1158
     19 H2         -0.5497    2.1708   -0.8711 H         1 <0>         0.1158
     20 H3         -0.5327    2.1613    0.9088 H         1 <0>         0.1035
     21 H4          2.5889   -2.6029   -2.7201 H         1 <0>         0.0779
     22 H5          1.0391   -2.6191   -3.5954 H         1 <0>         0.0779
     23 H6          1.2151   -0.1716   -3.9524 H         1 <0>         0.0857
     24 H7          2.7649   -0.1554   -3.0770 H         1 <0>         0.0858
     25 H8          4.7526   -1.1472   -4.0498 H         1 <0>         0.1349
     26 H9          5.9399   -1.7516   -6.1172 H         1 <0>         0.1284
     27 H10         2.2071   -1.7726   -8.2308 H         1 <0>         0.1284
     28 H11         1.0390   -1.1765   -6.1501 H         1 <0>         0.1349
@<TRIPOS>BOND
     1    1    2 1
     2    1   18 1
     3    1   19 1
     4    1   20 1
     5    2    3 2
     6    2    4 2
     7    2    5 1
     8    5    6 2
     9    6    7 1
    10    6    8 1
    11    8    9 1
    12    8   21 1
    13    8   22 1
    14    9   10 1
    15    9   23 1
    16    9   24 1
    17   10   15 ar
    18   10   11 ar
    19   11   12 ar
    20   11   25 1
    21   12   13 ar
    22   12   26 1
    23   13   14 ar
    24   13   16 1
    25   14   15 ar
    26   14   27 1
    27   15   28 1
    28   16   17 3
@<TRIPOS>MOLECULE
ZINC54554124
   29    29     0     0     0
SMALL
USER_CHARGES

@<TRIPOS>ATOM
      1 C1         -0.1618    1.4971    0.0261 C.3       1 <0>        -0.1079
      2 C2         -0.0658   -0.0068    0.0095 C.ar      1 <0>        -0.0686
      3 C3         -0.1605   -0.7154   -1.1763 C.ar      1 <0>         0.0535
      4 N1         -0.0738   -2.0315   -1.1722 N.ar      1 <0>        -0.2513
      5 N2          0.0984   -2.7115   -0.0983 N.ar      1 <0>        -0.2608
      6 C4          0.2026   -2.1362    1.0940 C.ar      1 <0>         0.0611
      7 C5          0.1280   -0.7322    1.1935 C.ar      1 <0>        -0.0862
      8 C6          0.2442   -0.0518    2.4953 C.2       1 <0>         0.5355
      9 O1         -0.7525    0.1335    3.1797 O.co2     1 <0>        -0.6646
     10 O2          1.3375    0.3276    2.8916 O.co2     1 <0>        -0.6650
     11 S1          0.4379   -3.1186    2.5377 S.3       1 <0>        -0.0035
     12 C7          0.4741   -4.8200    1.9096 C.3       1 <0>        -0.1215
     13 C8          0.6757   -5.7899    3.0757 C.3       1 <0>         0.0798
     14 O3          0.7041   -7.1302    2.5809 O.3       1 <0>        -0.3881
     15 C9          0.8890   -8.1202    3.5947 C.3       1 <0>         0.0324
     16 C10        -0.3637    0.0196   -2.4761 C.3       1 <0>        -0.0925
     17 H1          0.8163    1.9260   -0.1920 H         1 <0>         0.0783
     18 H2         -0.8780    1.8238   -0.7278 H         1 <0>         0.0729
     19 H3         -0.4930    1.8292    1.0100 H         1 <0>         0.0804
     20 H4         -0.4688   -5.0431    1.4103 H         1 <0>         0.0971
     21 H5          1.2951   -4.9283    1.2009 H         1 <0>         0.0969
     22 H6          1.6186   -5.5668    3.5750 H         1 <0>         0.0606
     23 H7         -0.1453   -5.6816    3.7844 H         1 <0>         0.0607
     24 H8          1.8363   -7.9454    4.1048 H         1 <0>         0.0421
     25 H9          0.0724   -8.0602    4.3143 H         1 <0>         0.0421
     26 H10         0.8992   -9.1100    3.1384 H         1 <0>         0.0857
     27 H11         0.6056    0.2638   -2.9108 H         1 <0>         0.0777
     28 H12        -0.9230   -0.6115   -3.1668 H         1 <0>         0.0757
     29 H13        -0.9206    0.9381   -2.2909 H         1 <0>         0.0780
@<TRIPOS>BOND
     1    1    2 1
     2    1   17 1
     3    1   18 1
     4    1   19 1
     5    2    7 ar
     6    2    3 ar
     7    3    4 ar
     8    3   16 1
     9    4    5 ar
    10    5    6 ar
    11    6    7 ar
    12    6   11 1
    13    7    8 1
    14    8    9 2
    15    8   10 1
    16   11   12 1
    17   12   13 1
    18   12   20 1
    19   12   21 1
    20   13   14 1
    21   13   22 1
    22   13   23 1
    23   14   15 1
    24   15   24 1
    25   15   25 1
    26   15   26 1
    27   16   27 1
    28   16   28 1
    29   16   29 1
@<TRIPOS>MOLECULE
ZINC62873809
   37    37     0     0     0
SMALL
USER_CHARGES

@<TRIPOS>ATOM
      1 C1         -0.0187    1.5258    0.0104 C.3       1 <0>        -0.1445
      2 C2          0.0021   -0.0041    0.0020 C.3       1 <0>        -0.1365
      3 C3          0.7182   -0.4975   -1.2568 C.3       1 <0>        -0.0790
      4 C4          0.7390   -2.0273   -1.2652 C.3       1 <0>        -0.1338
      5 C5          1.4825   -2.5349   -0.0276 C.3       1 <0>        -0.0904
      6 C6          2.9079   -1.9777   -0.0226 C.3       1 <0>        -0.1324
      7 C7          3.6494   -2.4719   -1.2687 C.3       1 <0>         0.1220
      8 N1          2.8656   -2.1135   -2.4586 N.pl3     1 <0>        -0.9934
      9 C8          1.4559   -2.5220   -2.5254 C.3       1 <0>         0.1418
     10 S1          3.5578   -1.2647   -3.7007 S.o2      1 <0>         2.6030
     11 O1          2.4757   -0.5860   -4.3234 O.2       1 <0>        -0.9488
     12 O2          4.6177   -0.5366   -3.0959 O.2       1 <0>        -0.9625
     13 C9          4.2256   -2.5306   -4.8152 C.3       1 <0>        -0.6400
     14 C10         4.8960   -1.8537   -6.0124 C.3       1 <0>        -0.1444
     15 C11        -0.6746   -2.5496   -1.2529 C.2       1 <0>         0.5068
     16 O3         -1.6123   -1.7705   -1.2387 O.co2     1 <0>        -0.6819
     17 O4         -0.8805   -3.7513   -1.2571 O.co2     1 <0>        -0.6980
     18 H1          1.0039    1.9031    0.0027 H         1 <0>         0.0387
     19 H2         -0.5459    1.8868   -0.8726 H         1 <0>         0.0491
     20 H3         -0.5289    1.8773    0.9072 H         1 <0>         0.0425
     21 H4          0.5293   -0.3651    0.8851 H         1 <0>         0.0432
     22 H5         -1.0205   -0.3814    0.0098 H         1 <0>         0.1036
     23 H6          0.1910   -0.1364   -2.1398 H         1 <0>         0.0574
     24 H7          1.7408   -0.1202   -1.2645 H         1 <0>         0.0368
     25 H8          0.9605   -2.2048    0.8705 H         1 <0>         0.0597
     26 H9          1.5185   -3.6241   -0.0469 H         1 <0>         0.0627
     27 H10         2.8727   -0.8883   -0.0283 H         1 <0>         0.0693
     28 H11         3.4294   -2.3207    0.8710 H         1 <0>         0.0653
     29 H12         4.6304   -1.9996   -1.3215 H         1 <0>         0.0847
     30 H13         3.7650   -3.5546   -1.2198 H         1 <0>         0.0648
     31 H14         1.3926   -3.6089   -2.5789 H         1 <0>         0.0729
     32 H15         0.9895   -2.0829   -3.4073 H         1 <0>         0.0849
     33 H16         4.9595   -3.1342   -4.2812 H         1 <0>         0.1274
     34 H17         3.4154   -3.1698   -5.1660 H         1 <0>         0.1308
     35 H18         4.1622   -1.2501   -6.5464 H         1 <0>         0.0711
     36 H19         5.7062   -1.2145   -5.6616 H         1 <0>         0.0692
     37 H20         5.2973   -2.6144   -6.6821 H         1 <0>         0.0778
@<TRIPOS>BOND
     1    1    2 1
     2    1   18 1
     3    1   19 1
     4    1   20 1
     5    2    3 1
     6    2   21 1
     7    2   22 1
     8    3    4 1
     9    3   23 1
    10    3   24 1
    11    4    9 1
    12    4    5 1
    13    4   15 1
    14    5    6 1
    15    5   25 1
    16    5   26 1
    17    6    7 1
    18    6   27 1
    19    6   28 1
    20    7    8 1
    21    7   29 1
    22    7   30 1
    23    8    9 1
    24    8   10 1
    25    9   31 1
    26    9   32 1
    27   10   11 2
    28   10   12 2
    29   10   13 1
    30   13   14 1
    31   13   33 1
    32   13   34 1
    33   14   35 1
    34   14   36 1
    35   14   37 1
    36   15   16 2
    37   15   17 1
@<TRIPOS>MOLECULE
ZINC40547376
   38    37     0     0     0
SMALL
USER_CHARGES

@<TRIPOS>ATOM
      1 C1         -0.0297   -0.3516    1.1757 C.3       1 <0>        -0.1548
      2 C2          0.3994   -1.5628    0.3451 C.3       1 <0>         0.1771
      3 C3          1.7357   -2.0928    0.8689 C.3       1 <0>        -0.1625
      4 C4         -0.6625   -2.6588    0.4554 C.3       1 <0>        -0.1298
      5 N1          0.5475   -1.1656   -1.0572 N.am      1 <0>        -0.6110
      6 C5          1.6294   -0.2600   -1.4517 C.3       1 <0>         0.1216
      7 C6          2.9246   -1.0565   -1.6218 C.3       1 <0>        -0.2332
      8 C7          4.0375   -0.1249   -2.0276 C.2       1 <0>         0.4926
      9 O1          3.8153    1.0657   -2.1678 O.co2     1 <0>        -0.6982
     10 O2          5.1601   -0.5619   -2.2158 O.co2     1 <0>        -0.7000
     11 C8         -0.3116   -1.6333   -1.9844 C.2       1 <0>         0.7142
     12 O3         -1.3151   -2.2266   -1.6390 O.2       1 <0>        -0.5839
     13 N2         -0.0584   -1.4432   -3.2944 N.am      1 <0>        -0.6455
     14 C9          1.3238   -1.4368   -3.7799 C.3       1 <0>         0.0320
     15 C10        -1.1653   -1.2431   -4.2330 C.3       1 <0>         0.1423
     16 C11        -1.4800    0.2504   -4.3395 C.3       1 <0>        -0.0521
     17 C12        -2.5922    0.4514   -5.2825 C.1       1 <0>         0.2170
     18 N3         -3.4506    0.6066   -6.0103 N.1       1 <0>        -0.4426
     19 H1          0.7268    0.4293    1.0971 H         1 <0>         0.0601
     20 H2         -0.9817    0.0260    0.8025 H         1 <0>         0.0571
     21 H3         -0.1399   -0.6471    2.2190 H         1 <0>         0.0625
     22 H4          1.6255   -2.3883    1.9123 H         1 <0>         0.0613
     23 H5          2.0413   -2.9557    0.2772 H         1 <0>         0.0594
     24 H6          2.4921   -1.3120    0.7904 H         1 <0>         0.0713
     25 H7         -1.6403   -2.2431    0.2120 H         1 <0>         0.0829
     26 H8         -0.4268   -3.4643   -0.2401 H         1 <0>         0.0579
     27 H9         -0.6769   -3.0497    1.4727 H         1 <0>         0.0377
     28 H10         1.3733    0.2229   -2.3947 H         1 <0>         0.0931
     29 H11         1.7677    0.4983   -0.6810 H         1 <0>         0.0778
     30 H12         3.1807   -1.5394   -0.6788 H         1 <0>         0.0761
     31 H13         2.7863   -1.8147   -2.3925 H         1 <0>         0.0750
     32 H14         1.7496   -2.4350   -3.6775 H         1 <0>         0.0540
     33 H15         1.3391   -1.1412   -4.8290 H         1 <0>         0.0695
     34 H16         1.9112   -0.7294   -3.1945 H         1 <0>         0.1230
     35 H17        -0.8837   -1.6260   -5.2139 H         1 <0>         0.0833
     36 H18        -2.0464   -1.7754   -3.8745 H         1 <0>         0.0907
     37 H19        -1.7616    0.6332   -3.3586 H         1 <0>         0.1095
     38 H20        -0.5990    0.7826   -4.6980 H         1 <0>         0.1145
@<TRIPOS>BOND
     1    1    2 1
     2    1   19 1
     3    1   20 1
     4    1   21 1
     5    2    3 1
     6    2    4 1
     7    2    5 1
     8    3   22 1
     9    3   23 1
    10    3   24 1
    11    4   25 1
    12    4   26 1
    13    4   27 1
    14    5    6 1
    15    5   11 am
    16    6    7 1
    17    6   28 1
    18    6   29 1
    19    7    8 1
    20    7   30 1
    21    7   31 1
    22    8    9 2
    23    8   10 1
    24   11   12 2
    25   11   13 am
    26   13   14 1
    27   13   15 1
    28   14   32 1
    29   14   33 1
    30   14   34 1
    31   15   16 1
    32   15   35 1
    33   15   36 1
    34   16   17 1
    35   16   37 1
    36   16   38 1
    37   17   18 3
@<TRIPOS>MOLECULE
ZINC44982209
   31    32     0     0     0
SMALL
USER_CHARGES

@<TRIPOS>ATOM
      1 C1         -0.0165    1.3633    0.0095 C.2       1 <0>         0.1409
      2 N1          1.2220    1.7681   -0.0001 N.2       1 <0>        -0.2923
      3 N2          2.0163    0.7578   -0.0131 N.2       1 <0>        -0.3052
      4 C2          1.3212   -0.3560   -0.0125 C.2       1 <0>         0.1549
      5 N3          0.0021   -0.0041    0.0020 N.pl3     1 <0>        -0.4690
      6 C3         -1.1536   -0.9044    0.0086 C.3       1 <0>         0.1139
      7 C4         -1.4648   -1.3243    1.4466 C.3       1 <0>        -0.1399
      8 H1         -1.6027   -0.4363    2.0636 H         1 <0>         0.0852
      9 C5         -2.7440   -2.1665    1.4685 C.3       1 <0>        -0.1141
     10 C6         -3.0023   -2.6456    2.9004 C.3       1 <0>        -0.1531
     11 C7         -1.7832   -3.4276    3.3963 C.3       1 <0>         0.0540
     12 O1         -0.6230   -2.5968    3.3208 O.3       1 <0>        -0.3756
     13 C8         -0.3044   -2.1560    1.9992 C.3       1 <0>         0.0594
     14 S1          1.9683   -1.9948   -0.0280 S.3       1 <0>         0.0392
     15 C9          3.7665   -1.7565   -0.0436 C.3       1 <0>        -0.1640
     16 C10         4.4510   -3.0990   -0.0578 C.2       1 <0>         0.5156
     17 O2          3.7873   -4.1217   -0.0573 O.co2     1 <0>        -0.6756
     18 O3          5.6685   -3.1623   -0.0696 O.co2     1 <0>        -0.6752
     19 H2         -0.8949    1.9914    0.0253 H         1 <0>         0.2155
     20 H3         -2.0167   -0.3908   -0.4148 H         1 <0>         0.1016
     21 H4         -0.9286   -1.7888   -0.5875 H         1 <0>         0.1013
     22 H5         -3.5848   -1.5615    1.1292 H         1 <0>         0.0699
     23 H6         -2.6245   -3.0282    0.8117 H         1 <0>         0.0714
     24 H7         -3.1709   -1.7849    3.5476 H         1 <0>         0.0700
     25 H8         -3.8802   -3.2914    2.9156 H         1 <0>         0.0748
     26 H9         -1.9440   -3.7344    4.4298 H         1 <0>         0.0921
     27 H10        -1.6394   -4.3102    2.7731 H         1 <0>         0.0531
     28 H11        -0.1401   -3.0220    1.3580 H         1 <0>         0.0663
     29 H12         0.5991   -1.5468    2.0261 H         1 <0>         0.1023
     30 H13         4.0508   -1.1943   -0.9331 H         1 <0>         0.0906
     31 H14         4.0676   -1.2045    0.8467 H         1 <0>         0.0919
@<TRIPOS>BOND
     1    1    5 1
     2    1    2 2
     3    1   19 1
     4    2    3 1
     5    3    4 2
     6    4    5 1
     7    4   14 1
     8    5    6 1
     9    6    7 1
    10    6   20 1
    11    6   21 1
    12    7    8 1
    13    7   13 1
    14    7    9 1
    15    9   10 1
    16    9   22 1
    17    9   23 1
    18   10   11 1
    19   10   24 1
    20   10   25 1
    21   11   12 1
    22   11   26 1
    23   11   27 1
    24   12   13 1
    25   13   28 1
    26   13   29 1
    27   14   15 1
    28   15   16 1
    29   15   30 1
    30   15   31 1
    31   16   17 2
    32   16   18 1
@<TRIPOS>MOLECULE
ZINC54304408
   39    39     0     0     0
SMALL
USER_CHARGES

@<TRIPOS>ATOM
      1 C1          0.7287   -2.6802   -2.4004 C.3       1 <0>         0.0654
      2 N1          0.2893   -2.0087   -1.1747 N.am      1 <0>        -0.6268
      3 C2          0.0535   -2.7881    0.0432 C.3       1 <0>         0.1384
      4 C3          1.3474   -2.8683    0.8558 C.3       1 <0>         0.0439
      5 O1          1.7082   -1.5613    1.3072 O.3       1 <0>        -0.3597
      6 C4          2.9093   -1.5244    2.0804 C.3       1 <0>         0.0313
      7 C5          0.1019   -0.6741   -1.1676 C.2       1 <0>         0.7163
      8 O2         -0.0490   -0.0870   -0.1136 O.2       1 <0>        -0.5804
      9 N2          0.0817    0.0098   -2.3288 N.am      1 <0>        -0.6313
     10 C6          0.2874    1.4645   -2.3444 C.3       1 <0>         0.1331
     11 C7         -0.8796    2.1195   -3.0899 C.3       1 <0>        -0.1315
     12 C8         -1.0116    1.4884   -4.4778 C.3       1 <0>        -0.1176
     13 C9         -1.3080   -0.0061   -4.3344 C.3       1 <0>        -0.0755
     14 H1         -2.2263   -0.1417   -3.7631 H         1 <0>         0.0718
     15 C10        -0.1402   -0.6860   -3.6036 C.3       1 <0>         0.0835
     16 C11        -1.4731   -0.6294   -5.7219 C.3       1 <0>        -0.1802
     17 C12        -1.8853   -2.0719   -5.5788 C.2       1 <0>         0.4905
     18 O3         -2.0334   -2.5564   -4.4699 O.co2     1 <0>        -0.6934
     19 O4         -2.0708   -2.7543   -6.5720 O.co2     1 <0>        -0.7055
     20 H2         -0.1401   -3.0597   -2.9383 H         1 <0>         0.0891
     21 H3          1.2650   -1.9710   -3.0309 H         1 <0>         0.0758
     22 H4          1.3881   -3.5094   -2.1441 H         1 <0>         0.0542
     23 H5         -0.7207   -2.3051    0.6394 H         1 <0>         0.0869
     24 H6         -0.2695   -3.7937   -0.2258 H         1 <0>         0.0908
     25 H7          1.1965   -3.5209    1.7157 H         1 <0>         0.0517
     26 H8          2.1449   -3.2697    0.2305 H         1 <0>         0.0453
     27 H9          3.1141   -0.4980    2.3847 H         1 <0>         0.0805
     28 H10         2.7909   -2.1492    2.9657 H         1 <0>         0.0341
     29 H11         3.7392   -1.8980    1.4805 H         1 <0>         0.0330
     30 H12         0.3241    1.8394   -1.3216 H         1 <0>         0.0848
     31 H13         1.2226    1.6959   -2.8543 H         1 <0>         0.0541
     32 H14        -1.8020    1.9639   -2.5303 H         1 <0>         0.0647
     33 H15        -0.6917    3.1883   -3.1926 H         1 <0>         0.0652
     34 H16        -1.8258    1.9698   -5.0197 H         1 <0>         0.0574
     35 H17        -0.0802    1.6228   -5.0279 H         1 <0>         0.0557
     36 H18         0.7608   -0.6265   -4.2141 H         1 <0>         0.0455
     37 H19        -0.3858   -1.7305   -3.4119 H         1 <0>         0.1439
     38 H20        -2.2386   -0.0860   -6.2757 H         1 <0>         0.0587
     39 H21        -0.5269   -0.5737   -6.2602 H         1 <0>         0.0562
@<TRIPOS>BOND
     1    1    2 1
     2    1   20 1
     3    1   21 1
     4    1   22 1
     5    2    3 1
     6    2    7 am
     7    3    4 1
     8    3   23 1
     9    3   24 1
    10    4    5 1
    11    4   25 1
    12    4   26 1
    13    5    6 1
    14    6   27 1
    15    6   28 1
    16    6   29 1
    17    7    8 2
    18    7    9 am
    19    9   15 1
    20    9   10 1
    21   10   11 1
    22   10   30 1
    23   10   31 1
    24   11   12 1
    25   11   32 1
    26   11   33 1
    27   12   13 1
    28   12   34 1
    29   12   35 1
    30   13   14 1
    31   13   15 1
    32   13   16 1
    33   15   36 1
    34   15   37 1
    35   16   17 1
    36   16   38 1
    37   16   39 1
    38   17   18 2
    39   17   19 1
@<TRIPOS>MOLECULE
ZINC62468424
   31    31     0     0     0
SMALL
USER_CHARGES

@<TRIPOS>ATOM
      1 C1         -0.0187    1.5258    0.0104 C.3       1 <0>        -0.1416
      2 C2          0.0021   -0.0041    0.0020 C.3       1 <0>        -0.0089
      3 C3         -1.4333   -0.5336    0.0129 C.3       1 <0>        -0.1392
      4 C4          0.7074   -0.4901   -1.2379 C.2       1 <0>         0.1646
      5 N1          0.3636   -0.2484   -2.4794 N.2       1 <0>        -0.3127
      6 N2          1.2138   -0.8354   -3.2492 N.2       1 <0>        -0.1071
      7 N3          2.0910   -1.4453   -2.5310 N.2       1 <0>        -0.0597
      8 N4          1.8162   -1.2517   -1.2853 N.pl3     1 <0>        -0.2584
      9 C5          2.5676   -1.7671   -0.1382 C.3       1 <0>         0.0668
     10 H1          2.0909   -1.4389    0.7855 H         1 <0>         0.1098
     11 C6          2.5873   -3.2962   -0.1866 C.3       1 <0>        -0.0866
     12 C7          3.2632   -3.8378    1.0746 C.3       1 <0>        -0.0788
     13 S1          3.2865   -5.6507    1.0171 S.3       1 <0>        -0.2871
     14 C8          4.1090   -6.1282    2.5618 C.3       1 <0>        -0.1142
     15 C9          3.9804   -1.2447   -0.1874 C.2       1 <0>         0.4994
     16 O1          4.3273   -0.5101   -1.0965 O.co2     1 <0>        -0.6557
     17 O2          4.7763   -1.5568    0.6818 O.co2     1 <0>        -0.6682
     18 H2          1.0039    1.9031    0.0027 H         1 <0>         0.0594
     19 H3         -0.5459    1.8868   -0.8726 H         1 <0>         0.0687
     20 H4         -0.5289    1.8773    0.9072 H         1 <0>         0.0673
     21 H5          0.5293   -0.3651    0.8851 H         1 <0>         0.0887
     22 H6         -1.9605   -0.1726   -0.8702 H         1 <0>         0.0690
     23 H7         -1.4185   -1.6235    0.0069 H         1 <0>         0.0552
     24 H8         -1.9435   -0.1821    0.9097 H         1 <0>         0.0676
     25 H9          1.5652   -3.6711   -0.2406 H         1 <0>         0.0648
     26 H10         3.1417   -3.6247   -1.0657 H         1 <0>         0.0841
     27 H11         4.2853   -3.4628    1.1285 H         1 <0>         0.1294
     28 H12         2.7088   -3.5092    1.9536 H         1 <0>         0.0758
     29 H13         3.5368   -5.7515    3.4096 H         1 <0>         0.0731
     30 H14         4.1711   -7.2149    2.6195 H         1 <0>         0.0965
     31 H15         5.1133   -5.7051    2.5845 H         1 <0>         0.0778
@<TRIPOS>BOND
     1    1    2 1
     2    1   18 1
     3    1   19 1
     4    1   20 1
     5    2    3 1
     6    2    4 1
     7    2   21 1
     8    3   22 1
     9    3   23 1
    10    3   24 1
    11    4    8 1
    12    4    5 2
    13    5    6 1
    14    6    7 2
    15    7    8 1
    16    8    9 1
    17    9   10 1
    18    9   11 1
    19    9   15 1
    20   11   12 1
    21   11   25 1
    22   11   26 1
    23   12   13 1
    24   12   27 1
    25   12   28 1
    26   13   14 1
    27   14   29 1
    28   14   30 1
    29   14   31 1
    30   15   16 2
    31   15   17 1
@<TRIPOS>MOLECULE
ZINC63097391
   39    39     0     0     0
SMALL
USER_CHARGES

@<TRIPOS>ATOM
      1 C1          1.0669   -2.0389   -2.9879 C.3       1 <0>        -0.1577
      2 C2          0.2891   -0.8414   -2.4383 C.3       1 <0>         0.1559
      3 H1          0.7241   -0.5305   -1.4885 H         1 <0>         0.1061
      4 C3          0.3628    0.3160   -3.4363 C.3       1 <0>        -0.0334
      5 C4         -0.2822    1.5055   -2.8566 C.1       1 <0>         0.1928
      6 N1         -0.7800    2.4234   -2.4093 N.1       1 <0>        -0.4131
      7 N2         -1.1110   -1.2209   -2.2333 N.am      1 <0>        -0.6335
      8 C5         -1.9194   -1.6784   -3.3662 C.3       1 <0>         0.0560
      9 C6         -1.6552   -1.1493   -1.0024 C.2       1 <0>         0.7225
     10 O1         -1.0887   -0.5307   -0.1222 O.2       1 <0>        -0.5912
     11 N3         -2.8275   -1.7634   -0.7471 N.am      1 <0>        -0.5904
     12 C7         -3.6081   -1.3896    0.4349 C.3       1 <0>         0.0618
     13 C8         -4.4429   -0.1745    0.1220 C.2       1 <0>         0.4824
     14 O2         -4.3906    0.3322   -0.9857 O.co2     1 <0>        -0.6797
     15 O3         -5.1705    0.3017    0.9765 O.co2     1 <0>        -0.7049
     16 C9         -3.3212   -2.8047   -1.6517 C.3       1 <0>         0.1102
     17 C10        -4.6195   -2.3349   -2.3398 C.3       1 <0>        -0.1499
     18 C11        -5.4882   -3.6143   -2.4258 C.3       1 <0>        -0.1228
     19 C12        -5.1839   -4.3249   -1.0836 C.3       1 <0>        -0.1224
     20 C13        -3.6801   -4.0700   -0.8529 C.3       1 <0>        -0.1356
     21 H2          2.1085   -1.7565   -3.1404 H         1 <0>         0.0695
     22 H3          1.0143   -2.8635   -2.2769 H         1 <0>         0.0630
     23 H4          0.6318   -2.3498   -3.9377 H         1 <0>         0.0611
     24 H5          1.4066    0.5398   -3.6566 H         1 <0>         0.1144
     25 H6         -0.1508    0.0360   -4.3560 H         1 <0>         0.1059
     26 H7         -1.7655   -2.7472   -3.5142 H         1 <0>         0.0533
     27 H8         -2.9729   -1.4879   -3.1612 H         1 <0>         0.1054
     28 H9         -1.6213   -1.1403   -4.2660 H         1 <0>         0.0590
     29 H10        -4.2607   -2.2162    0.7157 H         1 <0>         0.0729
     30 H11        -2.9325   -1.1636    1.2599 H         1 <0>         0.0747
     31 H12        -2.5642   -3.0380   -2.4005 H         1 <0>         0.1106
     32 H13        -5.1174   -1.5754   -1.7370 H         1 <0>         0.1050
     33 H14        -4.4053   -1.9515   -3.3374 H         1 <0>         0.0675
     34 H15        -6.5456   -3.3593   -2.4968 H         1 <0>         0.0633
     35 H16        -5.1816   -4.2335   -3.2688 H         1 <0>         0.0608
     36 H17        -5.7731   -3.8868   -0.2779 H         1 <0>         0.0659
     37 H18        -5.3817   -5.3938   -1.1644 H         1 <0>         0.0601
     38 H19        -3.0979   -4.9175   -1.2147 H         1 <0>         0.0636
     39 H20        -3.4869   -3.9093    0.2077 H         1 <0>         0.0709
@<TRIPOS>BOND
     1    1    2 1
     2    1   21 1
     3    1   22 1
     4    1   23 1
     5    2    3 1
     6    2    4 1
     7    2    7 1
     8    4    5 1
     9    4   24 1
    10    4   25 1
    11    5    6 3
    12    7    8 1
    13    7    9 am
    14    8   26 1
    15    8   27 1
    16    8   28 1
    17    9   10 2
    18    9   11 am
    19   11   12 1
    20   11   16 1
    21   12   13 1
    22   12   29 1
    23   12   30 1
    24   13   14 2
    25   13   15 1
    26   16   20 1
    27   16   17 1
    28   16   31 1
    29   17   18 1
    30   17   32 1
    31   17   33 1
    32   18   19 1
    33   18   34 1
    34   18   35 1
    35   19   20 1
    36   19   36 1
    37   19   37 1
    38   20   38 1
    39   20   39 1
@<TRIPOS>MOLECULE
ZINC36855801
   38    39     0     0     0
SMALL
USER_CHARGES

@<TRIPOS>ATOM
      1 C1         -4.6120   -5.3645    2.8749 C.3       1 <0>        -0.1480
      2 C2         -3.9141   -4.3433    1.9743 C.3       1 <0>        -0.1351
      3 C3         -2.5040   -4.8356    1.6423 C.3       1 <0>         0.0948
      4 N1         -1.7947   -3.8064    0.8782 N.pl3     1 <0>        -0.4083
      5 C4         -1.6682   -3.7699   -0.4708 C.2       1 <0>         0.0058
      6 C5         -0.9497   -2.6742   -0.8139 C.2       1 <0>        -0.2084
      7 C6         -0.6121   -1.9970    0.3620 C.2       1 <0>        -0.1525
      8 C7         -1.1509   -2.7123    1.4103 C.2       1 <0>        -0.0361
      9 C8         -1.0529   -2.3715    2.8335 C.2       1 <0>         0.5816
     10 O1         -1.1075   -3.2493    3.6746 O.2       1 <0>        -0.5499
     11 N2         -0.9023   -1.0861    3.2098 N.am      1 <0>        -0.5921
     12 C9         -1.0242    0.0004    2.2283 C.3       1 <0>         0.0912
     13 C10        -2.0557    1.0119    2.7380 C.3       1 <0>        -0.1343
     14 C11        -1.6599    1.4747    4.1420 C.3       1 <0>        -0.0964
     15 C12        -1.6493    0.2751    5.0923 C.3       1 <0>        -0.1651
     16 H1         -2.6363   -0.1874    5.1054 H         1 <0>         0.0621
     17 C13        -0.6192   -0.7444    4.6105 C.3       1 <0>         0.1360
     18 C14        -1.2918    0.7370    6.4815 C.2       1 <0>         0.5006
     19 O2         -1.8664    0.2650    7.4476 O.co2     1 <0>        -0.6970
     20 O3         -0.4278    1.5828    6.6392 O.co2     1 <0>        -0.6940
     21 H2         -5.5821   -4.9744    3.1827 H         1 <0>         0.0609
     22 H3         -4.7523   -6.2962    2.3269 H         1 <0>         0.0544
     23 H4         -3.9987   -5.5503    3.7566 H         1 <0>         0.0626
     24 H5         -4.4833   -4.2229    1.0525 H         1 <0>         0.0647
     25 H6         -3.8523   -3.3855    2.4909 H         1 <0>         0.0697
     26 H7         -1.9633   -5.0393    2.5665 H         1 <0>         0.1082
     27 H8         -2.5680   -5.7485    1.0500 H         1 <0>         0.0886
     28 H9         -2.0741   -4.4960   -1.1596 H         1 <0>         0.1644
     29 H10        -0.6846   -2.3764   -1.8176 H         1 <0>         0.1402
     30 H11        -0.0402   -1.0838    0.4351 H         1 <0>         0.1491
     31 H12        -0.0593    0.4925    2.1063 H         1 <0>         0.0690
     32 H13        -1.3529   -0.4063    1.2719 H         1 <0>         0.0997
     33 H14        -2.0858    1.8703    2.0670 H         1 <0>         0.0698
     34 H15        -3.0388    0.5425    2.7733 H         1 <0>         0.0594
     35 H16        -0.6663    1.9217    4.1104 H         1 <0>         0.0692
     36 H17        -2.3789    2.2129    4.4972 H         1 <0>         0.0564
     37 H18        -0.6808   -1.6423    5.2253 H         1 <0>         0.0883
     38 H19         0.3794   -0.3143    4.6870 H         1 <0>         0.0705
@<TRIPOS>BOND
     1    1    2 1
     2    1   21 1
     3    1   22 1
     4    1   23 1
     5    2    3 1
     6    2   24 1
     7    2   25 1
     8    3    4 1
     9    3   26 1
    10    3   27 1
    11    4    8 1
    12    4    5 1
    13    5    6 2
    14    5   28 1
    15    6    7 1
    16    6   29 1
    17    7    8 2
    18    7   30 1
    19    8    9 1
    20    9   10 2
    21    9   11 am
    22   11   17 1
    23   11   12 1
    24   12   13 1
    25   12   31 1
    26   12   32 1
    27   13   14 1
    28   13   33 1
    29   13   34 1
    30   14   15 1
    31   14   35 1
    32   14   36 1
    33   15   16 1
    34   15   17 1
    35   15   18 1
    36   17   37 1
    37   17   38 1
    38   18   19 2
    39   18   20 1
@<TRIPOS>MOLECULE
ZINC39582823
   29    31     0     0     0
SMALL
USER_CHARGES

@<TRIPOS>ATOM
      1 C1         -0.0187    1.5258    0.0104 C.3       1 <0>        -0.1493
      2 C2          1.3165    0.7789   -0.0063 C.3       1 <0>        -0.1669
      3 C3          0.0021   -0.0041    0.0020 C.3       1 <0>        -0.1399
      4 C4         -0.4023   -0.6984   -1.2729 C.2       1 <0>         0.0737
      5 C5         -1.4480   -1.5381   -1.3037 C.2       1 <0>        -0.2991
      6 C6         -1.7771   -2.1776   -2.5955 C.2       1 <0>         0.2676
      7 N1         -2.7872   -3.0092   -2.6893 N.2       1 <0>        -0.5193
      8 C7         -3.5392   -3.3010   -1.6396 C.2       1 <0>         0.4494
      9 N2         -3.3420   -2.7947   -0.4461 N.2       1 <0>        -0.5954
     10 C8         -2.3562   -1.9315   -0.1796 C.2       1 <0>         0.5506
     11 O1         -2.2011   -1.4800    0.9424 O.2       1 <0>        -0.4566
     12 C9         -4.6821   -4.2654   -1.8260 C.3       1 <0>        -0.0428
     13 C10        -5.4108   -4.4562   -0.4943 C.3       1 <0>        -0.1662
     14 C11        -6.5537   -5.4206   -0.6808 C.2       1 <0>         0.4901
     15 O2         -6.7658   -5.9099   -1.7772 O.co2     1 <0>        -0.7017
     16 O3         -7.2663   -5.7115    0.2648 O.co2     1 <0>        -0.7024
     17 S1         -0.5674   -1.5479   -3.7316 S.3       1 <0>        -0.0049
     18 C12         0.3528   -0.4677   -2.5621 C.3       1 <0>        -0.0970
     19 H1         -0.3072    2.0201    0.9381 H         1 <0>         0.1093
     20 H2         -0.3248    2.0300   -0.9061 H         1 <0>         0.0997
     21 H3          1.8888    0.7918   -0.9339 H         1 <0>         0.1013
     22 H4          1.9064    0.7818    0.9103 H         1 <0>         0.1078
     23 H5         -0.2728   -0.5162    0.9241 H         1 <0>         0.1460
     24 H6         -5.3762   -3.8674   -2.5662 H         1 <0>         0.1061
     25 H7         -4.2955   -5.2249   -2.1694 H         1 <0>         0.1062
     26 H8         -4.7166   -4.8542    0.2459 H         1 <0>         0.0663
     27 H9         -5.7974   -3.4967   -0.1509 H         1 <0>         0.0663
     28 H10         0.2951    0.5774   -2.8665 H         1 <0>         0.1493
     29 H11         1.3902   -0.7890   -2.4696 H         1 <0>         0.1518
@<TRIPOS>BOND
     1    1    3 1
     2    1    2 1
     3    1   19 1
     4    1   20 1
     5    2    3 1
     6    2   21 1
     7    2   22 1
     8    3    4 1
     9    3   23 1
    10    4   18 1
    11    4    5 2
    12    5   10 1
    13    5    6 1
    14    6    7 2
    15    6   17 1
    16    7    8 1
    17    8    9 2
    18    8   12 1
    19    9   10 1
    20   10   11 2
    21   12   13 1
    22   12   24 1
    23   12   25 1
    24   13   14 1
    25   13   26 1
    26   13   27 1
    27   14   15 2
    28   14   16 1
    29   17   18 1
    30   18   28 1
    31   18   29 1
@<TRIPOS>MOLECULE
ZINC42823066
   32    33     0     0     0
SMALL
USER_CHARGES

@<TRIPOS>ATOM
      1 C1         -0.0161    1.3394    0.0094 C.2       1 <0>        -0.0195
      2 C2          1.2535    1.7797   -0.0004 C.2       1 <0>        -0.0770
      3 N1          2.0643    0.6670   -0.0141 N.pl3     1 <0>        -0.4483
      4 C3          1.2467   -0.4211   -0.0121 C.2       1 <0>         0.2101
      5 N2          0.0021   -0.0041    0.0020 N.2       1 <0>        -0.5096
      6 S1          1.7698   -2.1036   -0.0261 S.3       1 <0>         0.0440
      7 C4          0.2195   -3.0454   -0.0164 C.3       1 <0>        -0.1635
      8 C5          0.5277   -4.5205   -0.0273 C.2       1 <0>         0.5141
      9 O1          1.6859   -4.9012   -0.0404 O.co2     1 <0>        -0.6763
     10 O2         -0.3811   -5.3332   -0.0229 O.co2     1 <0>        -0.6828
     11 C6          3.5292    0.6563   -0.0285 C.3       1 <0>         0.1145
     12 C7          4.0241    0.5349   -1.4712 C.3       1 <0>         0.0732
     13 H1          3.5894    1.3330   -2.0730 H         1 <0>         0.0587
     14 C8          5.5506    0.6484   -1.4985 C.3       1 <0>        -0.1480
     15 C9          6.0426    0.4658   -2.9376 C.3       1 <0>        -0.1183
     16 C10         5.5506   -0.8850   -3.4663 C.3       1 <0>        -0.1574
     17 C11         4.0241   -0.9393   -3.3629 C.3       1 <0>         0.0610
     18 O3          3.6321   -0.7316   -2.0045 O.3       1 <0>        -0.3467
     19 H2         -0.9002    1.9596    0.0252 H         1 <0>         0.1634
     20 H3          1.5764    2.8103    0.0018 H         1 <0>         0.1682
     21 H4         -0.3493   -2.7996    0.8804 H         1 <0>         0.0840
     22 H5         -0.3663   -2.7901   -0.8995 H         1 <0>         0.0853
     23 H6          3.9036    1.5826    0.4073 H         1 <0>         0.1028
     24 H7          3.8921   -0.1914    0.5526 H         1 <0>         0.1030
     25 H8          5.8494    1.6309   -1.1333 H         1 <0>         0.0714
     26 H9          5.9847   -0.1245   -0.8643 H         1 <0>         0.0783
     27 H10         5.6484    1.2674   -3.5622 H         1 <0>         0.0603
     28 H11         7.1322    0.4896   -2.9562 H         1 <0>         0.0670
     29 H12         5.8494   -0.9991   -4.5083 H         1 <0>         0.0705
     30 H13         5.9847   -1.6889   -2.8718 H         1 <0>         0.0754
     31 H14         3.5894   -0.1606   -3.9896 H         1 <0>         0.0430
     32 H15         3.6715   -1.9147   -3.6979 H         1 <0>         0.0993
@<TRIPOS>BOND
     1    1    5 1
     2    1    2 2
     3    1   19 1
     4    2    3 1
     5    2   20 1
     6    3    4 1
     7    3   11 1
     8    4    5 2
     9    4    6 1
    10    6    7 1
    11    7    8 1
    12    7   21 1
    13    7   22 1
    14    8    9 2
    15    8   10 1
    16   11   12 1
    17   11   23 1
    18   11   24 1
    19   12   13 1
    20   12   18 1
    21   12   14 1
    22   14   15 1
    23   14   25 1
    24   14   26 1
    25   15   16 1
    26   15   27 1
    27   15   28 1
    28   16   17 1
    29   16   29 1
    30   16   30 1
    31   17   18 1
    32   17   31 1
    33   17   32 1
@<TRIPOS>MOLECULE
ZINC61213341
   36    36     0     0     0
SMALL
USER_CHARGES

@<TRIPOS>ATOM
      1 C1          0.7529    0.3258   -0.5116 C.3       1 <0>        -0.1907
      2 C2          0.2120   -0.9162    0.1996 C.3       1 <0>         0.0551
      3 N1         -1.2525   -0.8778    0.2033 N.am      1 <0>        -0.6007
      4 C3         -1.9937   -1.0821   -1.0437 C.3       1 <0>         0.1753
      5 H1         -3.0636   -1.0190   -0.8449 H         1 <0>         0.0986
      6 C4         -1.6616   -2.4624   -1.6142 C.3       1 <0>        -0.1586
      7 C5         -1.5983   -0.0038   -2.0545 C.3       1 <0>        -0.2138
      8 C6         -2.0366    1.3457   -1.5467 C.2       1 <0>         0.4905
      9 O1         -2.6118    1.4366   -0.4756 O.co2     1 <0>        -0.6784
     10 O2         -1.8158    2.3466   -2.2070 O.co2     1 <0>        -0.7137
     11 C7         -1.9178   -0.6547    1.3540 C.2       1 <0>         0.7329
     12 O3         -3.1199   -0.8301    1.4050 O.2       1 <0>        -0.5768
     13 N2         -1.2508   -0.2370    2.4480 N.am      1 <0>        -0.6334
     14 C8         -1.8996   -0.3006    3.7585 C.3       1 <0>         0.1295
     15 C9         -1.1658   -1.3151    4.6431 C.3       1 <0>        -0.0962
     16 S1          0.5811   -0.8258    4.7628 S.3       1 <0>        -0.2662
     17 C10         1.0876   -0.6716    3.0234 C.3       1 <0>        -0.1059
     18 C11         0.1159    0.2692    2.3121 C.3       1 <0>         0.0497
     19 H2          1.6855    0.6368   -0.0409 H         1 <0>         0.0571
     20 H3          0.9354    0.0930   -1.5608 H         1 <0>         0.0693
     21 H4          0.0231    1.1322   -0.4400 H         1 <0>         0.0877
     22 H5          0.5507   -1.8107   -0.3231 H         1 <0>         0.0624
     23 H6          0.5776   -0.9350    1.2263 H         1 <0>         0.1173
     24 H7         -0.5917   -2.5255   -1.8129 H         1 <0>         0.0501
     25 H8         -1.9433   -3.2306   -0.8940 H         1 <0>         0.0503
     26 H9         -2.2131   -2.6143   -2.5420 H         1 <0>         0.0616
     27 H10        -0.5163   -0.0086   -2.1863 H         1 <0>         0.0717
     28 H11        -2.0816   -0.2069   -3.0101 H         1 <0>         0.0614
     29 H12        -1.8664    0.6822    4.2286 H         1 <0>         0.0769
     30 H13        -2.9376   -0.6097    3.6354 H         1 <0>         0.1047
     31 H14        -1.6122   -1.3237    5.6374 H         1 <0>         0.1132
     32 H15        -1.2380   -2.3077    4.1985 H         1 <0>         0.0838
     33 H16         2.0973   -0.2644    2.9712 H         1 <0>         0.1160
     34 H17         1.0605   -1.6513    2.5464 H         1 <0>         0.0901
     35 H18         0.3783    0.3278    1.2558 H         1 <0>         0.1533
     36 H19         0.1820    1.2614    2.7585 H         1 <0>         0.0758
@<TRIPOS>BOND
     1    1    2 1
     2    1   19 1
     3    1   20 1
     4    1   21 1
     5    2    3 1
     6    2   22 1
     7    2   23 1
     8    3    4 1
     9    3   11 am
    10    4    5 1
    11    4    6 1
    12    4    7 1
    13    6   24 1
    14    6   25 1
    15    6   26 1
    16    7    8 1
    17    7   27 1
    18    7   28 1
    19    8    9 2
    20    8   10 1
    21   11   12 2
    22   11   13 am
    23   13   18 1
    24   13   14 1
    25   14   15 1
    26   14   29 1
    27   14   30 1
    28   15   16 1
    29   15   31 1
    30   15   32 1
    31   16   17 1
    32   17   18 1
    33   17   33 1
    34   17   34 1
    35   18   35 1
    36   18   36 1
@<TRIPOS>MOLECULE
ZINC62926198
   37    37     0     0     0
SMALL
USER_CHARGES

@<TRIPOS>ATOM
      1 C1         -0.0187    1.5258    0.0104 C.3       1 <0>        -0.1481
      2 C2          0.0021   -0.0041    0.0020 C.3       1 <0>        -0.1329
      3 C3         -1.4333   -0.5336    0.0129 C.3       1 <0>        -0.0814
      4 C4         -1.4126   -2.0635    0.0045 C.3       1 <0>        -0.1364
      5 C5         -0.8133   -2.6116    1.3265 C.3       1 <0>        -0.1062
      6 C6         -1.4828   -4.0057    1.4169 C.3       1 <0>         0.1278
      7 N1         -2.8487   -3.8026    0.9008 N.pl3     1 <0>        -1.0008
      8 C7         -2.8484   -2.6291    0.0151 C.3       1 <0>         0.1383
      9 S1         -4.1651   -4.7413    1.2587 S.o2      1 <0>         2.6265
     10 O1         -5.0318   -4.5910    0.1426 O.2       1 <0>        -0.9495
     11 O2         -3.6244   -6.0130    1.5899 O.2       1 <0>        -0.9602
     12 C8         -4.9001   -3.9728    2.7283 C.3       1 <0>        -0.6032
     13 C9         -5.3031   -2.5330    2.4034 C.3       1 <0>        -0.1390
     14 C10        -6.1379   -4.7654    3.1533 C.3       1 <0>        -0.1399
     15 C11        -0.6457   -2.5778   -1.1865 C.2       1 <0>         0.5090
     16 O3          0.5248   -2.2715   -1.3365 O.co2     1 <0>        -0.6863
     17 O4         -1.1959   -3.3003   -2.0001 O.co2     1 <0>        -0.6868
     18 H1          1.0039    1.9031    0.0027 H         1 <0>         0.0458
     19 H2         -0.5459    1.8868   -0.8726 H         1 <0>         0.0462
     20 H3         -0.5289    1.8773    0.9072 H         1 <0>         0.0399
     21 H4          0.5123   -0.3556   -0.8948 H         1 <0>         0.1048
     22 H5          0.5293   -0.3651    0.8851 H         1 <0>         0.0520
     23 H6         -1.9435   -0.1821    0.9097 H         1 <0>         0.0446
     24 H7         -1.9605   -0.1726   -0.8702 H         1 <0>         0.0532
     25 H8          0.2706   -2.7026    1.2560 H         1 <0>         0.0839
     26 H9         -1.0971   -1.9863    2.1730 H         1 <0>         0.0618
     27 H10        -0.9464   -4.7249    0.7980 H         1 <0>         0.0708
     28 H11        -1.5150   -4.3446    2.4524 H         1 <0>         0.0629
     29 H12        -3.5401   -1.8774    0.3955 H         1 <0>         0.0475
     30 H13        -3.1375   -2.9256   -0.9931 H         1 <0>         0.0890
     31 H14        -4.1727   -3.9721    3.5402 H         1 <0>         0.1309
     32 H15        -6.0305   -2.5338    1.5916 H         1 <0>         0.0729
     33 H16        -5.7447   -2.0713    3.2865 H         1 <0>         0.0714
     34 H17        -4.4213   -1.9684    2.1007 H         1 <0>         0.0742
     35 H18        -5.8507   -5.7911    3.3848 H         1 <0>         0.0691
     36 H19        -6.5795   -4.3036    4.0364 H         1 <0>         0.0775
     37 H20        -6.8652   -4.7661    2.3415 H         1 <0>         0.0706
@<TRIPOS>BOND
     1    1    2 1
     2    1   18 1
     3    1   19 1
     4    1   20 1
     5    2    3 1
     6    2   21 1
     7    2   22 1
     8    3    4 1
     9    3   23 1
    10    3   24 1
    11    4    8 1
    12    4    5 1
    13    4   15 1
    14    5    6 1
    15    5   25 1
    16    5   26 1
    17    6    7 1
    18    6   27 1
    19    6   28 1
    20    7    8 1
    21    7    9 1
    22    8   29 1
    23    8   30 1
    24    9   10 2
    25    9   11 2
    26    9   12 1
    27   12   13 1
    28   12   14 1
    29   12   31 1
    30   13   32 1
    31   13   33 1
    32   13   34 1
    33   14   35 1
    34   14   36 1
    35   14   37 1
    36   15   16 2
    37   15   17 1
@<TRIPOS>MOLECULE
ZINC37842937
   27    28     0     0     0
SMALL
USER_CHARGES

@<TRIPOS>ATOM
      1 C1         -0.0187    1.5258    0.0104 C.3       1 <0>        -0.1659
      2 C2          1.3165    0.7789   -0.0063 C.3       1 <0>        -0.1548
      3 C3          0.0021   -0.0041    0.0020 C.3       1 <0>        -0.0485
      4 C4         -0.4023   -0.6984   -1.2729 C.2       1 <0>         0.0895
      5 N1          0.1777   -0.5780   -2.4308 N.2       1 <0>        -0.2589
      6 N2         -0.4293   -1.3131   -3.2948 N.2       1 <0>        -0.4277
      7 C5         -1.4263   -1.9333   -2.7123 C.2       1 <0>         0.4870
      8 O1         -1.4269   -1.5614   -1.4189 O.3       1 <0>        -0.2486
      9 N3         -2.3096   -2.8106   -3.3136 N.2       1 <0>        -1.0654
     10 S1         -2.1582   -3.1640   -4.9243 S.o2      1 <0>         2.5821
     11 O2         -2.3962   -1.9312   -5.5899 O.2       1 <0>        -1.0014
     12 O3         -0.9008   -3.8165   -5.0358 O.2       1 <0>        -1.0013
     13 C6         -3.5014   -4.3321   -5.2736 C.3       1 <0>        -0.6073
     14 C7         -3.4586   -4.7319   -6.7498 C.3       1 <0>        -0.1225
     15 C8         -4.5915   -5.7172   -7.0444 C.3       1 <0>        -0.0196
     16 Cl1        -4.5410   -6.1884   -8.7840 Cl        1 <0>        -0.1926
     17 H1         -0.3072    2.0201    0.9381 H         1 <0>         0.1000
     18 H2         -0.3248    2.0300   -0.9061 H         1 <0>         0.0987
     19 H3          1.8888    0.7918   -0.9339 H         1 <0>         0.1082
     20 H4          1.9064    0.7818    0.9103 H         1 <0>         0.1006
     21 H5         -0.2728   -0.5162    0.9241 H         1 <0>         0.1228
     22 H6         -3.3812   -5.2200   -4.6530 H         1 <0>         0.1278
     23 H7         -4.4592   -3.8611   -5.0524 H         1 <0>         0.1278
     24 H8         -3.5787   -3.8440   -7.3704 H         1 <0>         0.0882
     25 H9         -2.5008   -5.2029   -6.9710 H         1 <0>         0.0882
     26 H10        -4.4713   -6.6051   -6.4238 H         1 <0>         0.0969
     27 H11        -5.5493   -5.2462   -6.8232 H         1 <0>         0.0969
@<TRIPOS>BOND
     1    1    3 1
     2    1    2 1
     3    1   17 1
     4    1   18 1
     5    2    3 1
     6    2   19 1
     7    2   20 1
     8    3    4 1
     9    3   21 1
    10    4    8 1
    11    4    5 2
    12    5    6 1
    13    6    7 2
    14    7    8 1
    15    7    9 1
    16    9   10 1
    17   10   11 2
    18   10   12 2
    19   10   13 1
    20   13   14 1
    21   13   22 1
    22   13   23 1
    23   14   15 1
    24   14   24 1
    25   14   25 1
    26   15   16 1
    27   15   26 1
    28   15   27 1
@<TRIPOS>MOLECULE
ZINC42701851
   36    36     0     0     0
SMALL
USER_CHARGES

@<TRIPOS>ATOM
      1 C1         -0.0187    1.5258    0.0104 C.3       1 <0>        -0.1099
      2 C2          0.0021   -0.0041    0.0020 C.3       1 <0>        -0.1718
      3 H1         -1.0205   -0.3814    0.0098 H         1 <0>         0.0588
      4 C3          0.7421   -0.5109    1.2415 C.3       1 <0>         0.1403
      5 N1         -0.0083   -0.1401    2.4439 N.am      1 <0>        -0.6124
      6 C4         -1.0253   -1.0472    2.9815 C.3       1 <0>         0.0760
      7 C5          0.2370    1.0356    3.0555 C.2       1 <0>         0.5045
      8 O1          1.0789    1.7866    2.6104 O.2       1 <0>        -0.5326
      9 C6         -0.5349    1.4171    4.2923 C.3       1 <0>        -0.1273
     10 C7         -0.0664    2.7884    4.7832 C.3       1 <0>        -0.0815
     11 H2         -0.1419    3.5145    3.9738 H         1 <0>         0.1065
     12 C8          1.3910    2.6974    5.2650 C.3       1 <0>        -0.1268
     13 C9          1.7679    3.9765    6.0507 C.3       1 <0>        -0.5715
     14 S1          0.1504    4.5205    6.7366 S.o2      1 <0>         2.3657
     15 O2         -0.1779    5.7919    6.1937 O.2       1 <0>        -0.9394
     16 O3          0.1634    4.3444    8.1466 O.2       1 <0>        -0.9458
     17 C10        -0.9450    3.2453    5.9826 C.3       1 <0>        -0.5736
     18 C11         0.7074   -0.4901   -1.2379 C.2       1 <0>         0.5003
     19 O4          1.7092   -1.1780   -1.1392 O.co2     1 <0>        -0.6988
     20 O5          0.2764   -0.1953   -2.3396 O.co2     1 <0>        -0.6981
     21 H3          1.0039    1.9031    0.0027 H         1 <0>         0.0497
     22 H4         -0.5459    1.8868   -0.8726 H         1 <0>         0.0469
     23 H5         -0.5289    1.8773    0.9072 H         1 <0>         0.0337
     24 H6          0.8346   -1.5958    1.1912 H         1 <0>         0.0767
     25 H7          1.7350   -0.0630    1.2804 H         1 <0>         0.0834
     26 H8         -0.5642   -1.7253    3.6997 H         1 <0>         0.0545
     27 H9         -1.8038   -0.4674    3.4773 H         1 <0>         0.0666
     28 H10        -1.4645   -1.6240    2.1675 H         1 <0>         0.0736
     29 H11        -1.5986    1.4589    4.0582 H         1 <0>         0.1001
     30 H12        -0.3632    0.6742    5.0713 H         1 <0>         0.0970
     31 H13         1.5044    1.8282    5.9129 H         1 <0>         0.0809
     32 H14         2.0511    2.5941    4.4038 H         1 <0>         0.1164
     33 H15         2.4694    3.7452    6.8522 H         1 <0>         0.1383
     34 H16         2.1786    4.7336    5.3826 H         1 <0>         0.1389
     35 H17        -1.8823    3.6838    5.6401 H         1 <0>         0.1413
     36 H18        -1.1265    2.4226    6.6742 H         1 <0>         0.1393
@<TRIPOS>BOND
     1    1    2 1
     2    1   21 1
     3    1   22 1
     4    1   23 1
     5    2    3 1
     6    2    4 1
     7    2   18 1
     8    4    5 1
     9    4   24 1
    10    4   25 1
    11    5    6 1
    12    5    7 am
    13    6   26 1
    14    6   27 1
    15    6   28 1
    16    7    8 2
    17    7    9 1
    18    9   10 1
    19    9   29 1
    20    9   30 1
    21   10   11 1
    22   10   17 1
    23   10   12 1
    24   12   13 1
    25   12   31 1
    26   12   32 1
    27   13   14 1
    28   13   33 1
    29   13   34 1
    30   14   15 2
    31   14   16 2
    32   14   17 1
    33   17   35 1
    34   17   36 1
    35   18   19 2
    36   18   20 1
@<TRIPOS>MOLECULE
ZINC43589704
   40    40     0     0     0
SMALL
USER_CHARGES

@<TRIPOS>ATOM
      1 C1          0.4184    1.4591   -0.0222 C.3       1 <0>        -0.1720
      2 C2          0.2097   -0.0334   -0.0186 C.2       1 <0>         0.5185
      3 O1          0.3218   -0.6590    1.0143 O.2       1 <0>        -0.5450
      4 N1         -0.1016   -0.6730   -1.1634 N.am      1 <0>        -0.6032
      5 C3         -0.1238    0.0620   -2.4305 C.3       1 <0>         0.0808
      6 C4         -0.4177   -2.1033   -1.1407 C.3       1 <0>         0.0967
      7 C5         -1.8987   -2.2872   -0.9310 C.2       1 <0>         0.4952
      8 O2         -2.6192   -1.3188   -0.8122 O.2       1 <0>        -0.5302
      9 N2         -2.4225   -3.5278   -0.8755 N.am      1 <0>        -0.6097
     10 C6         -1.5617   -4.7106   -1.0116 C.3       1 <0>         0.1058
     11 C7         -2.1211   -5.6021   -2.1248 C.3       1 <0>        -0.1336
     12 C8         -3.5876   -5.9228   -1.8275 C.3       1 <0>        -0.1159
     13 C9         -4.3987   -4.6255   -1.7941 C.3       1 <0>        -0.1013
     14 H1         -4.3052   -4.1132   -2.7517 H         1 <0>         0.0681
     15 C10        -3.8644   -3.7231   -0.6715 C.3       1 <0>         0.1150
     16 C11        -5.8705   -4.9500   -1.5302 C.3       1 <0>        -0.0845
     17 C12        -6.6997   -3.6674   -1.6205 C.3       1 <0>        -0.1848
     18 C13        -8.1493   -3.9870   -1.3605 C.2       1 <0>         0.4885
     19 O3         -8.4878   -5.1343   -1.1249 O.co2     1 <0>        -0.7007
     20 O4         -8.9835   -3.0982   -1.3859 O.co2     1 <0>        -0.7081
     21 H2          1.4491    1.6811   -0.2986 H         1 <0>         0.0920
     22 H3         -0.2581    1.9188   -0.7426 H         1 <0>         0.0859
     23 H4          0.2151    1.8567    0.9722 H         1 <0>         0.0925
     24 H5          0.8838    0.1039   -2.8439 H         1 <0>         0.0594
     25 H6         -0.7842   -0.4456   -3.1335 H         1 <0>         0.0734
     26 H7         -0.4876    1.0747   -2.2567 H         1 <0>         0.0764
     27 H8         -0.1262   -2.5550   -2.0889 H         1 <0>         0.1060
     28 H9          0.1267   -2.5829   -0.3273 H         1 <0>         0.1131
     29 H10        -0.5493   -4.3983   -1.2676 H         1 <0>         0.0792
     30 H11        -1.5492   -5.2635   -0.0723 H         1 <0>         0.0717
     31 H12        -2.0490   -5.0806   -3.0792 H         1 <0>         0.0652
     32 H13        -1.5483   -6.5283   -2.1715 H         1 <0>         0.0739
     33 H14        -3.9811   -6.5772   -2.6053 H         1 <0>         0.0672
     34 H15        -3.6615   -6.4222   -0.8614 H         1 <0>         0.0649
     35 H16        -4.0359   -4.1970    0.2949 H         1 <0>         0.0678
     36 H17        -4.3718   -2.7589   -0.7031 H         1 <0>         0.0961
     37 H18        -6.2240   -5.6643   -2.2737 H         1 <0>         0.0635
     38 H19        -5.9746   -5.3806   -0.5343 H         1 <0>         0.0611
     39 H20        -6.3461   -2.9530   -0.8769 H         1 <0>         0.0571
     40 H21        -6.5955   -3.2367   -2.6164 H         1 <0>         0.0541
@<TRIPOS>BOND
     1    1    2 1
     2    1   21 1
     3    1   22 1
     4    1   23 1
     5    2    3 2
     6    2    4 am
     7    4    5 1
     8    4    6 1
     9    5   24 1
    10    5   25 1
    11    5   26 1
    12    6    7 1
    13    6   27 1
    14    6   28 1
    15    7    8 2
    16    7    9 am
    17    9   15 1
    18    9   10 1
    19   10   11 1
    20   10   29 1
    21   10   30 1
    22   11   12 1
    23   11   31 1
    24   11   32 1
    25   12   13 1
    26   12   33 1
    27   12   34 1
    28   13   14 1
    29   13   15 1
    30   13   16 1
    31   15   35 1
    32   15   36 1
    33   16   17 1
    34   16   37 1
    35   16   38 1
    36   17   18 1
    37   17   39 1
    38   17   40 1
    39   18   19 2
    40   18   20 1
@<TRIPOS>MOLECULE
ZINC61180389
   36    36     0     0     0
SMALL
USER_CHARGES

@<TRIPOS>ATOM
      1 C1          0.3786    0.9275   -0.4168 C.3       1 <0>        -0.1817
      2 C2          0.1633   -0.4977    0.0964 C.3       1 <0>         0.0961
      3 N1         -1.2728   -0.7760    0.1769 N.am      1 <0>        -0.5855
      4 C3         -2.0077   -1.1863   -1.0222 C.3       1 <0>         0.1586
      5 H1         -3.0555   -1.3474   -0.7689 H         1 <0>         0.1005
      6 C4         -1.9025   -0.0904   -2.0847 C.3       1 <0>        -0.1630
      7 C5         -1.4095   -2.4846   -1.5677 C.3       1 <0>        -0.1983
      8 C6         -1.6228   -3.5940   -0.5703 C.2       1 <0>         0.4867
      9 O1         -2.1999   -3.3672    0.4795 O.co2     1 <0>        -0.6757
     10 O2         -1.2184   -4.7182   -0.8132 O.co2     1 <0>        -0.7134
     11 C7         -1.9178   -0.6547    1.3540 C.2       1 <0>         0.5397
     12 O3         -3.0986   -0.9213    1.4287 O.2       1 <0>        -0.5108
     13 C8         -1.1719   -0.1876    2.5773 C.3       1 <0>        -0.1150
     14 H2         -0.2621   -0.7766    2.6930 H         1 <0>         0.1141
     15 C9         -0.8024    1.2961    2.4144 C.3       1 <0>        -0.1340
     16 C10        -0.3230    1.8302    3.7944 C.3       1 <0>        -0.5735
     17 S1         -1.5375    1.0124    4.9128 S.o2      1 <0>         2.3653
     18 O4         -2.6397    1.8859    5.1163 O.2       1 <0>        -0.9394
     19 O5         -0.8477    0.4836    6.0369 O.2       1 <0>        -0.9437
     20 C11        -2.0665   -0.3732    3.8266 C.3       1 <0>        -0.5539
     21 H3          1.3561    1.2860   -0.0943 H         1 <0>         0.0616
     22 H4          0.3308    0.9327   -1.5057 H         1 <0>         0.0651
     23 H5         -0.3978    1.5792   -0.0160 H         1 <0>         0.0649
     24 H6          0.6327   -1.2049   -0.5874 H         1 <0>         0.0791
     25 H7          0.6089   -0.5987    1.0860 H         1 <0>         0.0755
     26 H8         -0.8547    0.0706   -2.3381 H         1 <0>         0.0576
     27 H9         -2.4493   -0.3957   -2.9769 H         1 <0>         0.0600
     28 H10        -2.3287    0.8345   -1.6961 H         1 <0>         0.0505
     29 H11        -1.8971   -2.7425   -2.5078 H         1 <0>         0.0649
     30 H12        -0.3413   -2.3493   -1.7376 H         1 <0>         0.0571
     31 H13        -0.0017    1.3978    1.6819 H         1 <0>         0.1154
     32 H14        -1.6758    1.8590    2.0851 H         1 <0>         0.0926
     33 H15         0.6943    1.5042    4.0114 H         1 <0>         0.1396
     34 H16        -0.4067    2.9156    3.8477 H         1 <0>         0.1406
     35 H17        -3.1204   -0.2787    3.5648 H         1 <0>         0.1569
     36 H18        -1.8702   -1.3336    4.3033 H         1 <0>         0.1455
@<TRIPOS>BOND
     1    1    2 1
     2    1   21 1
     3    1   22 1
     4    1   23 1
     5    2    3 1
     6    2   24 1
     7    2   25 1
     8    3    4 1
     9    3   11 am
    10    4    5 1
    11    4    6 1
    12    4    7 1
    13    6   26 1
    14    6   27 1
    15    6   28 1
    16    7    8 1
    17    7   29 1
    18    7   30 1
    19    8    9 2
    20    8   10 1
    21   11   12 2
    22   11   13 1
    23   13   14 1
    24   13   20 1
    25   13   15 1
    26   15   16 1
    27   15   31 1
    28   15   32 1
    29   16   17 1
    30   16   33 1
    31   16   34 1
    32   17   18 2
    33   17   19 2
    34   17   20 1
    35   20   35 1
    36   20   36 1
@<TRIPOS>MOLECULE
ZINC63015495
   32    32     0     0     0
SMALL
USER_CHARGES

@<TRIPOS>ATOM
      1 C1         -0.0184    1.5028    0.0103 C.3       1 <0>        -0.0638
      2 C2          0.0021   -0.0041    0.0020 C.2       1 <0>         0.1073
      3 C3          0.0081   -0.8293   -1.1468 C.2       1 <0>        -0.2774
      4 C4          0.0284   -2.1398   -0.7058 C.2       1 <0>         0.0999
      5 N1          0.0344   -2.1116    0.6351 N.pl3     1 <0>        -0.3839
      6 N2          0.0230   -0.7762    1.0525 N.2       1 <0>        -0.3294
      7 C5          0.0548   -3.2826    1.5152 C.3       1 <0>         0.1475
      8 C6          1.5042   -3.6702    1.8148 C.3       1 <0>        -0.1311
      9 C7          1.5255   -4.8932    2.7339 C.3       1 <0>        -0.6073
     10 S1          3.2440   -5.3528    3.0890 S.o2      1 <0>         2.4204
     11 O1          3.8556   -5.7759    1.8782 O.2       1 <0>        -0.9356
     12 O2          3.8444   -4.3042    3.8368 O.2       1 <0>        -0.9368
     13 C8          3.0572   -6.7958    4.1723 C.3       1 <0>        -0.6569
     14 C9          0.0410   -3.3727   -1.5723 C.3       1 <0>        -0.0831
     15 C10        -0.0052   -0.3786   -2.5461 C.2       1 <0>         0.5524
     16 O3         -0.0230    0.8174   -2.8035 O.co2     1 <0>        -0.6913
     17 O4          0.0016   -1.1996   -3.4534 O.co2     1 <0>        -0.6966
     18 H1          1.0042    1.8801    0.0026 H         1 <0>         0.0677
     19 H2         -0.5455    1.8639   -0.8728 H         1 <0>         0.0982
     20 H3         -0.5286    1.8543    0.9071 H         1 <0>         0.0534
     21 H4         -0.4580   -3.0455    2.4474 H         1 <0>         0.0920
     22 H5         -0.4499   -4.1148    1.0244 H         1 <0>         0.0907
     23 H6          2.0170   -3.9073    0.8826 H         1 <0>         0.0876
     24 H7          2.0089   -2.8381    2.3056 H         1 <0>         0.0904
     25 H8          1.0127   -4.6562    3.6660 H         1 <0>         0.1356
     26 H9          1.0209   -5.7254    2.2431 H         1 <0>         0.1356
     27 H10         2.5128   -7.5786    3.6441 H         1 <0>         0.1280
     28 H11         4.0420   -7.1666    4.4566 H         1 <0>         0.1295
     29 H12         2.5047   -6.5093    5.0671 H         1 <0>         0.1276
     30 H13         1.0716   -3.6561   -1.7860 H         1 <0>         0.0718
     31 H14        -0.4594   -4.1886   -1.0507 H         1 <0>         0.0497
     32 H15        -0.4801   -3.1653   -2.5069 H         1 <0>         0.1079
@<TRIPOS>BOND
     1    1    2 1
     2    1   18 1
     3    1   19 1
     4    1   20 1
     5    2    6 2
     6    2    3 1
     7    3    4 2
     8    3   15 1
     9    4    5 1
    10    4   14 1
    11    5    6 1
    12    5    7 1
    13    7    8 1
    14    7   21 1
    15    7   22 1
    16    8    9 1
    17    8   23 1
    18    8   24 1
    19    9   10 1
    20    9   25 1
    21    9   26 1
    22   10   11 2
    23   10   12 2
    24   10   13 1
    25   13   27 1
    26   13   28 1
    27   13   29 1
    28   14   30 1
    29   14   31 1
    30   14   32 1
    31   15   16 2
    32   15   17 1
@<TRIPOS>MOLECULE
ZINC36857334
   38    39     0     0     0
SMALL
USER_CHARGES

@<TRIPOS>ATOM
      1 C1          2.0278   -3.4814    4.2778 C.3       1 <0>        -0.1571
      2 C2          1.0211   -2.3298    4.3155 C.3       1 <0>         0.1030
      3 C3          1.2875   -1.4597    5.5455 C.3       1 <0>        -0.1585
      4 N1          1.1615   -1.5186    3.1037 N.pl3     1 <0>        -0.3918
      5 C4          2.2539   -0.7916    2.7607 C.2       1 <0>         0.0199
      6 C5          2.0164   -0.1766    1.5767 C.2       1 <0>        -0.1206
      7 C6          0.7284   -0.5299    1.1606 C.2       1 <0>        -0.1449
      8 C7          0.2090   -1.3722    2.1210 C.2       1 <0>        -0.0055
      9 C8         -1.1181   -1.9964    2.1003 C.2       1 <0>         0.5954
     10 O1         -1.4981   -2.6496    3.0541 O.2       1 <0>        -0.5264
     11 N2         -1.9166   -1.8464    1.0250 N.am      1 <0>        -0.6859
     12 C9         -3.2834   -2.3733    1.0485 C.3       1 <0>         0.1055
     13 C10        -3.2669   -3.9193    1.1409 C.3       1 <0>        -0.1115
     14 C11        -3.0114   -4.3467   -0.3258 C.3       1 <0>        -0.1225
     15 C12        -3.8244   -3.3365   -1.1613 C.3       1 <0>        -0.1203
     16 C13        -3.9974   -2.0817   -0.2876 C.3       1 <0>        -0.1118
     17 C14        -4.0557   -1.7815    2.1993 C.2       1 <0>         0.5045
     18 O2         -3.5224   -0.9728    2.9396 O.co2     1 <0>        -0.6756
     19 O3         -5.2138   -2.1115    2.3900 O.co2     1 <0>        -0.6973
     20 Cl1         3.1154    0.8647    0.7272 Cl        1 <0>        -0.0624
     21 H1          3.0392   -3.0783    4.2256 H         1 <0>         0.0584
     22 H2          1.9234   -4.0850    5.1794 H         1 <0>         0.0759
     23 H3          1.8380   -4.1013    3.4016 H         1 <0>         0.0626
     24 H4          0.0097   -2.7329    4.3678 H         1 <0>         0.1403
     25 H5          2.2989   -1.0566    5.4932 H         1 <0>         0.0580
     26 H6          0.5703   -0.6393    5.5723 H         1 <0>         0.0676
     27 H7          1.1830   -2.0632    6.4471 H         1 <0>         0.0764
     28 H8          3.1641   -0.7152    3.3369 H         1 <0>         0.1692
     29 H9          0.2353   -0.2072    0.2556 H         1 <0>         0.1481
     30 H10        -1.5863   -1.3897    0.2356 H         1 <0>         0.3872
     31 H11        -2.4587   -4.2590    1.7886 H         1 <0>         0.0696
     32 H12        -4.2281   -4.2956    1.4910 H         1 <0>         0.0782
     33 H13        -1.9505   -4.2735   -0.5651 H         1 <0>         0.0565
     34 H14        -3.3727   -5.3609   -0.4960 H         1 <0>         0.0574
     35 H15        -3.2829   -3.0848   -2.0732 H         1 <0>         0.0557
     36 H16        -4.7994   -3.7561   -1.4093 H         1 <0>         0.0610
     37 H17        -5.0563   -1.8924   -0.1115 H         1 <0>         0.0837
     38 H18        -3.5398   -1.2211   -0.7754 H         1 <0>         0.0581
@<TRIPOS>BOND
     1    1    2 1
     2    1   21 1
     3    1   22 1
     4    1   23 1
     5    2    3 1
     6    2    4 1
     7    2   24 1
     8    3   25 1
     9    3   26 1
    10    3   27 1
    11    4    8 1
    12    4    5 1
    13    5    6 2
    14    5   28 1
    15    6    7 1
    16    6   20 1
    17    7    8 2
    18    7   29 1
    19    8    9 1
    20    9   10 2
    21    9   11 am
    22   11   12 1
    23   11   30 1
    24   12   16 1
    25   12   13 1
    26   12   17 1
    27   13   14 1
    28   13   31 1
    29   13   32 1
    30   14   15 1
    31   14   33 1
    32   14   34 1
    33   15   16 1
    34   15   35 1
    35   15   36 1
    36   16   37 1
    37   16   38 1
    38   17   18 2
    39   17   19 1
@<TRIPOS>MOLECULE
ZINC40566177
   37    38     0     0     0
SMALL
USER_CHARGES

@<TRIPOS>ATOM
      1 C1         -0.0187    1.5258    0.0104 C.3       1 <0>        -0.1394
      2 C2          0.0021   -0.0041    0.0020 C.3       1 <0>         0.1469
      3 C3          0.7421   -0.5109    1.2415 C.3       1 <0>        -0.1408
      4 C4          1.2220    0.5316    2.2533 C.3       1 <0>        -0.1961
      5 C5          2.2328   -0.1860    1.3565 C.3       1 <0>        -0.1526
      6 C6          0.7074   -0.4901   -1.2379 C.2       1 <0>         0.5059
      7 O1          1.8687   -0.1786   -1.4402 O.co2     1 <0>        -0.6958
      8 O2          0.1168   -1.1947   -2.0386 O.co2     1 <0>        -0.6755
      9 N1         -1.3723   -0.5112    0.0124 N.am      1 <0>        -0.7146
     10 C7         -2.2162   -0.1915   -0.9887 C.2       1 <0>         0.7179
     11 O3         -1.8367    0.5178   -1.9005 O.2       1 <0>        -0.5653
     12 N2         -3.4806   -0.6580   -0.9791 N.am      1 <0>        -0.6352
     13 C8         -3.9377   -1.5125    0.1195 C.3       1 <0>         0.0803
     14 C9         -4.3978   -0.3105   -2.0673 C.3       1 <0>         0.1526
     15 H1         -3.8666    0.3161   -2.7837 H         1 <0>         0.1110
     16 C10        -5.5642    0.4889   -1.4881 C.3       1 <0>        -0.1365
     17 C11        -6.8406    0.2814   -2.3504 C.3       1 <0>        -0.0569
     18 S1         -6.6724   -1.5200   -2.7204 S.3       1 <0>        -0.3186
     19 C12        -4.8374   -1.6067   -2.7756 C.3       1 <0>        -0.0660
     20 H2          1.0039    1.9031    0.0027 H         1 <0>         0.0619
     21 H3         -0.5459    1.8868   -0.8726 H         1 <0>         0.0690
     22 H4         -0.5289    1.8773    0.9072 H         1 <0>         0.0379
     23 H5          0.4050   -1.4719    1.6301 H         1 <0>         0.0928
     24 H6          1.0106    1.5786    2.0358 H         1 <0>         0.0965
     25 H7          1.2007    0.2567    3.3078 H         1 <0>         0.0817
     26 H8          2.8763   -0.9331    1.8210 H         1 <0>         0.0820
     27 H9          2.6863    0.3888    0.5490 H         1 <0>         0.1193
     28 H10        -1.6750   -1.0770    0.7398 H         1 <0>         0.3805
     29 H11        -4.3542   -0.8923    0.9132 H         1 <0>         0.0485
     30 H12        -4.7033   -2.1966   -0.2467 H         1 <0>         0.0716
     31 H13        -3.0958   -2.0846    0.5093 H         1 <0>         0.0660
     32 H14        -5.7593    0.1551   -0.4690 H         1 <0>         0.0815
     33 H15        -5.3051    1.5476   -1.4762 H         1 <0>         0.0841
     34 H16        -7.7448    0.4867   -1.7775 H         1 <0>         0.1072
     35 H17        -6.8062    0.8791   -3.2613 H         1 <0>         0.0927
     36 H18        -4.4856   -1.6197   -3.8072 H         1 <0>         0.0988
     37 H19        -4.4777   -2.4818   -2.2344 H         1 <0>         0.1069
@<TRIPOS>BOND
     1    1    2 1
     2    1   20 1
     3    1   21 1
     4    1   22 1
     5    2    3 1
     6    2    6 1
     7    2    9 1
     8    3    5 1
     9    3    4 1
    10    3   23 1
    11    4    5 1
    12    4   24 1
    13    4   25 1
    14    5   26 1
    15    5   27 1
    16    6    7 2
    17    6    8 1
    18    9   10 am
    19    9   28 1
    20   10   11 2
    21   10   12 am
    22   12   13 1
    23   12   14 1
    24   13   29 1
    25   13   30 1
    26   13   31 1
    27   14   15 1
    28   14   19 1
    29   14   16 1
    30   16   17 1
    31   16   32 1
    32   16   33 1
    33   17   18 1
    34   17   34 1
    35   17   35 1
    36   18   19 1
    37   19   36 1
    38   19   37 1
@<TRIPOS>MOLECULE
ZINC42445101
   37    38     0     0     0
SMALL
USER_CHARGES

@<TRIPOS>ATOM
      1 C1         -0.0187    1.5258    0.0104 C.3       1 <0>        -0.1399
      2 C2          0.0021   -0.0041    0.0020 C.3       1 <0>         0.1470
      3 C3          0.7421   -0.5109    1.2415 C.3       1 <0>        -0.1411
      4 C4          1.2220    0.5316    2.2533 C.3       1 <0>        -0.1961
      5 C5          2.2328   -0.1860    1.3565 C.3       1 <0>        -0.1524
      6 C6          0.7074   -0.4901   -1.2379 C.2       1 <0>         0.5066
      7 O1          1.8687   -0.1786   -1.4402 O.co2     1 <0>        -0.6957
      8 O2          0.1168   -1.1947   -2.0386 O.co2     1 <0>        -0.6758
      9 N1         -1.3723   -0.5112    0.0124 N.am      1 <0>        -0.7153
     10 C7         -2.2162   -0.1915   -0.9887 C.2       1 <0>         0.7140
     11 O3         -1.8367    0.5178   -1.9005 O.2       1 <0>        -0.5626
     12 N2         -3.4806   -0.6580   -0.9791 N.am      1 <0>        -0.6316
     13 C8         -4.3801   -0.2987   -2.0876 C.3       1 <0>         0.1250
     14 C9         -5.2596   -1.4433   -2.6513 C.3       1 <0>        -0.1271
     15 C10        -4.5168   -2.7275   -2.8468 C.3       1 <0>        -0.0775
     16 S1         -4.5742   -3.7258   -1.3131 S.3       1 <0>        -0.2377
     17 C11        -3.4798   -2.9338   -0.2032 C.3       1 <0>        -0.1468
     18 C12        -3.9018   -1.4895    0.1035 C.3       1 <0>         0.1217
     19 H1          1.0039    1.9031    0.0027 H         1 <0>         0.0619
     20 H2         -0.5459    1.8868   -0.8726 H         1 <0>         0.0691
     21 H3         -0.5289    1.8773    0.9072 H         1 <0>         0.0380
     22 H4          0.4050   -1.4719    1.6301 H         1 <0>         0.0923
     23 H5          1.0106    1.5786    2.0358 H         1 <0>         0.0966
     24 H6          1.2007    0.2567    3.3078 H         1 <0>         0.0818
     25 H7          2.8763   -0.9331    1.8210 H         1 <0>         0.0820
     26 H8          2.6863    0.3888    0.5490 H         1 <0>         0.1193
     27 H9         -1.6750   -1.0770    0.7398 H         1 <0>         0.3796
     28 H10        -5.0394    0.4988   -1.7450 H         1 <0>         0.0558
     29 H11        -3.7736    0.0963   -2.9026 H         1 <0>         0.0905
     30 H12        -6.0861   -1.6197   -1.9629 H         1 <0>         0.0733
     31 H13        -5.6697   -1.1280   -3.6108 H         1 <0>         0.0834
     32 H14        -4.9741   -3.2893   -3.6612 H         1 <0>         0.1026
     33 H15        -3.4787   -2.5101   -3.0981 H         1 <0>         0.0915
     34 H16        -3.4508   -3.4997    0.7280 H         1 <0>         0.1088
     35 H17        -2.4808   -2.9239   -0.6392 H         1 <0>         0.0952
     36 H18        -3.4260   -1.1604    1.0273 H         1 <0>         0.0760
     37 H19        -4.9855   -1.4371    0.2079 H         1 <0>         0.0873
@<TRIPOS>BOND
     1    1    2 1
     2    1   19 1
     3    1   20 1
     4    1   21 1
     5    2    3 1
     6    2    6 1
     7    2    9 1
     8    3    5 1
     9    3    4 1
    10    3   22 1
    11    4    5 1
    12    4   23 1
    13    4   24 1
    14    5   25 1
    15    5   26 1
    16    6    7 2
    17    6    8 1
    18    9   10 am
    19    9   27 1
    20   10   11 2
    21   10   12 am
    22   12   18 1
    23   12   13 1
    24   13   14 1
    25   13   28 1
    26   13   29 1
    27   14   15 1
    28   14   30 1
    29   14   31 1
    30   15   16 1
    31   15   32 1
    32   15   33 1
    33   16   17 1
    34   17   18 1
    35   17   34 1
    36   17   35 1
    37   18   36 1
    38   18   37 1
@<TRIPOS>MOLECULE
ZINC54524194
   34    36     0     0     0
SMALL
USER_CHARGES

@<TRIPOS>ATOM
      1 C1         -0.0048    1.3881    0.0000 C.2       1 <0>        -0.1383
      2 C2          1.1596    2.0766   -0.0070 C.2       1 <0>        -0.1824
      3 S1          2.3659    0.7590   -0.0199 S.3       1 <0>         0.0272
      4 C3          1.2314   -0.6042   -0.0178 C.2       1 <0>        -0.1236
      5 C4          0.0094   -0.0058   -0.0035 C.2       1 <0>        -0.1447
      6 C5         -1.2598   -0.8557    0.0132 C.3       1 <0>         0.1792
      7 N1         -0.8786   -2.2382   -0.3059 N.am      1 <0>        -0.6363
      8 C6          0.2749   -2.8381    0.3810 C.3       1 <0>         0.1403
      9 C7          1.5376   -2.0665   -0.0324 C.3       1 <0>        -0.0613
     10 C8         -1.5767   -2.9469   -1.2153 C.2       1 <0>         0.7164
     11 O1         -1.1983   -4.0548   -1.5435 O.2       1 <0>        -0.5869
     12 N2         -2.6943   -2.4275   -1.7609 N.am      1 <0>        -0.7081
     13 C9         -3.5123   -3.2381   -2.6664 C.3       1 <0>         0.1210
     14 H1         -3.4952   -4.2776   -2.3390 H         1 <0>         0.0804
     15 C10        -4.9528   -2.7225   -2.6518 C.3       1 <0>        -0.1418
     16 C11        -6.0183   -3.6208   -2.0204 C.3       1 <0>        -0.1926
     17 C12        -5.9699   -3.4426   -3.5393 C.3       1 <0>        -0.1500
     18 C13        -2.9588   -3.1426   -4.0648 C.2       1 <0>         0.4932
     19 O2         -1.9724   -2.4606   -4.2847 O.co2     1 <0>        -0.6854
     20 O3         -3.4974   -3.7473   -4.9762 O.co2     1 <0>        -0.6947
     21 H2         -0.9456    1.9184    0.0128 H         1 <0>         0.1320
     22 H3          1.3185    3.1448   -0.0056 H         1 <0>         0.1847
     23 H4         -1.7165   -0.8177    1.0021 H         1 <0>         0.0772
     24 H5         -1.9622   -0.4848   -0.7332 H         1 <0>         0.0891
     25 H6          0.1377   -2.7670    1.4600 H         1 <0>         0.0690
     26 H7          0.3721   -3.8843    0.0907 H         1 <0>         0.1041
     27 H8          1.8377   -2.3672   -1.0362 H         1 <0>         0.0920
     28 H9          2.3425   -2.2785    0.6713 H         1 <0>         0.0892
     29 H10        -2.9569   -1.5169   -1.5541 H         1 <0>         0.3845
     30 H11        -5.0653   -1.6452   -2.5293 H         1 <0>         0.0950
     31 H12        -5.6931   -4.5791   -1.6155 H         1 <0>         0.0887
     32 H13        -6.8320   -3.1346   -1.4823 H         1 <0>         0.0845
     33 H14        -6.7519   -2.8392   -4.0004 H         1 <0>         0.0850
     34 H15        -5.6130   -4.2837   -4.1336 H         1 <0>         0.1135
@<TRIPOS>BOND
     1    1    5 1
     2    1    2 2
     3    1   21 1
     4    2    3 1
     5    2   22 1
     6    3    4 1
     7    4    9 1
     8    4    5 2
     9    5    6 1
    10    6    7 1
    11    6   23 1
    12    6   24 1
    13    7    8 1
    14    7   10 am
    15    8    9 1
    16    8   25 1
    17    8   26 1
    18    9   27 1
    19    9   28 1
    20   10   11 2
    21   10   12 am
    22   12   13 1
    23   12   29 1
    24   13   14 1
    25   13   15 1
    26   13   18 1
    27   15   17 1
    28   15   16 1
    29   15   30 1
    30   16   17 1
    31   16   31 1
    32   16   32 1
    33   17   33 1
    34   17   34 1
    35   18   19 2
    36   18   20 1
@<TRIPOS>MOLECULE
ZINC63097269
   42    42     0     0     0
SMALL
USER_CHARGES

@<TRIPOS>ATOM
      1 C1         -0.2724    1.5221    0.0483 C.3       1 <0>        -0.1461
      2 C2         -0.2516   -0.0077    0.0399 C.3       1 <0>        -0.0875
      3 H1          0.0805   -0.3612   -0.9363 H         1 <0>         0.0570
      4 C3         -1.6584   -0.5384    0.3229 C.3       1 <0>        -0.1096
      5 C4         -2.1246   -0.0422    1.6930 C.3       1 <0>        -0.1180
      6 C5         -1.1633   -0.5452    2.7718 C.3       1 <0>        -0.1057
      7 C6          0.2436   -0.0145    2.4888 C.3       1 <0>         0.1286
      8 C7          0.7098   -0.5107    1.1186 C.3       1 <0>        -0.1066
      9 C8          1.1905   -0.5099    3.5513 C.2       1 <0>         0.4978
     10 O1          1.3542   -1.7073    3.7118 O.co2     1 <0>        -0.7067
     11 O2          1.7929    0.2868    4.2505 O.co2     1 <0>        -0.6666
     12 N1          0.2237    1.4504    2.4968 N.am      1 <0>        -0.7117
     13 C9          1.3619    2.1409    2.2870 C.2       1 <0>         0.7222
     14 O3          2.4053    1.5481    2.0910 O.2       1 <0>        -0.5626
     15 N2          1.3437    3.4885    2.2944 N.am      1 <0>        -0.6403
     16 C10         0.0865    4.2028    2.5306 C.3       1 <0>         0.0800
     17 C11         2.5809    4.2392    2.0663 C.3       1 <0>         0.1579
     18 H2          3.4049    3.5428    1.9108 H         1 <0>         0.1093
     19 C12         2.4200    5.1235    0.8282 C.3       1 <0>        -0.1571
     20 C13         2.8773    5.1162    3.2844 C.3       1 <0>        -0.0314
     21 C14         3.1504    4.2603    4.4505 C.1       1 <0>         0.1855
     22 N3          3.3612    3.5998    5.3503 N.1       1 <0>        -0.4049
     23 H3          0.7502    1.8993    0.0614 H         1 <0>         0.0516
     24 H4         -0.7815    1.8835   -0.8452 H         1 <0>         0.0303
     25 H5         -0.8006    1.8735    0.9347 H         1 <0>         0.0697
     26 H6         -2.3433   -0.1801   -0.4457 H         1 <0>         0.0520
     27 H7         -1.6437   -1.6283    0.3169 H         1 <0>         0.0596
     28 H8         -2.1394    1.0477    1.6990 H         1 <0>         0.0565
     29 H9         -3.1269   -0.4203    1.8946 H         1 <0>         0.0555
     30 H10        -1.4954   -0.1917    3.7479 H         1 <0>         0.0560
     31 H11        -1.1485   -1.6350    2.7658 H         1 <0>         0.0799
     32 H12         0.7246   -1.6005    1.1126 H         1 <0>         0.0653
     33 H13         1.7120   -0.1326    0.9170 H         1 <0>         0.0762
     34 H14        -0.6087    1.9233    2.6532 H         1 <0>         0.3782
     35 H15        -0.0371    4.3769    3.5994 H         1 <0>         0.0470
     36 H16         0.1077    5.1585    2.0068 H         1 <0>         0.0708
     37 H17        -0.7463    3.6044    2.1612 H         1 <0>         0.0621
     38 H18         1.5960    5.8199    0.9836 H         1 <0>         0.0592
     39 H19         3.3405    5.6820    0.6584 H         1 <0>         0.0681
     40 H20         2.2088    4.4987   -0.0397 H         1 <0>         0.0640
     41 H21         3.7474    5.7401    3.0799 H         1 <0>         0.1123
     42 H22         2.0161    5.7509    3.4933 H         1 <0>         0.1022
@<TRIPOS>BOND
     1    1    2 1
     2    1   23 1
     3    1   24 1
     4    1   25 1
     5    2    3 1
     6    2    8 1
     7    2    4 1
     8    4    5 1
     9    4   26 1
    10    4   27 1
    11    5    6 1
    12    5   28 1
    13    5   29 1
    14    6    7 1
    15    6   30 1
    16    6   31 1
    17    7    8 1
    18    7    9 1
    19    7   12 1
    20    8   32 1
    21    8   33 1
    22    9   10 2
    23    9   11 1
    24   12   13 am
    25   12   34 1
    26   13   14 2
    27   13   15 am
    28   15   16 1
    29   15   17 1
    30   16   35 1
    31   16   36 1
    32   16   37 1
    33   17   18 1
    34   17   19 1
    35   17   20 1
    36   19   38 1
    37   19   39 1
    38   19   40 1
    39   20   21 1
    40   20   41 1
    41   20   42 1
    42   21   22 3
@<TRIPOS>MOLECULE
ZINC32629462
   24    25     0     0     0
SMALL
USER_CHARGES
(3S,8aS)-8a-methyl-5-oxo-3,8-dihydro-2H-thiazolo[2,3-c][1,4]thiazine-3-carboxylic acid
@<TRIPOS>ATOM
      1 C1         -3.5212    2.6402   -0.0614 C.3       1 <0>        -0.1430
      2 C2         -2.1871    3.3255    0.2411 C.3       1 <0>         0.2149
      3 C3         -1.3087    3.3930   -1.0062 C.3       1 <0>        -0.0818
      4 S1         -0.8833    1.6836   -1.4700 S.3       1 <0>        -0.2311
      5 C4         -0.0127    1.0858    0.0080 C.3       1 <0>        -0.0981
      6 C5         -0.7050    1.5640    1.2416 C.2       1 <0>         0.5522
      7 O1         -0.5611    0.8964    2.2438 O.2       1 <0>        -0.5281
      8 N1         -1.4790    2.6508    1.3481 N.am      1 <0>        -0.5994
      9 C6         -1.6287    3.3264    2.6616 C.3       1 <0>         0.0796
     10 H1         -2.0756    2.5567    3.3080 H         1 <0>         0.0917
     11 C7         -2.5639    4.5566    2.6639 C.3       1 <0>        -0.0426
     12 S2         -2.4445    5.0341    0.8819 S.3       1 <0>        -0.2698
     13 C8         -0.2681    3.7624    3.1409 C.2       1 <0>         0.4727
     14 O2          0.6909    3.6572    2.4135 O.co2     1 <0>        -0.6189
     15 O3         -0.1216    4.2675    4.3758 O.co2     1 <0>        -0.7554
     16 H2         -4.0234    3.1642   -0.8880 H         1 <0>         0.0781
     17 H3         -4.1600    2.6701    0.8336 H         1 <0>         0.0671
     18 H4         -3.3393    1.5937   -0.3473 H         1 <0>         0.0809
     19 H5         -1.8632    3.8850   -1.8189 H         1 <0>         0.1254
     20 H6         -0.3982    3.9684   -0.7828 H         1 <0>         0.1110
     21 H7          0.0009   -0.0141    0.0057 H         1 <0>         0.1372
     22 H8          1.0198    1.4653    0.0040 H         1 <0>         0.1274
     23 H9         -3.5714    4.2507    2.9822 H         1 <0>         0.0960
     24 H10        -2.1732    5.3129    3.3605 H         1 <0>         0.1341
@<TRIPOS>BOND
     1    1    2 1
     2    1   16 1
     3    1   17 1
     4    1   18 1
     5    2    8 1
     6    2   12 1
     7    2    3 1
     8    3    4 1
     9    3   19 1
    10    3   20 1
    11    4    5 1
    12    5    6 1
    13    5   21 1
    14    5   22 1
    15    6    7 2
    16    6    8 am
    17    8    9 1
    18    9   10 1
    19    9   11 1
    20    9   13 1
    21   11   12 1
    22   11   23 1
    23   11   24 1
    24   13   14 2
    25   13   15 1
@<TRIPOS>MOLECULE
ZINC40532913
   36    37     0     0     0
SMALL
USER_CHARGES

@<TRIPOS>ATOM
      1 C1          0.1998    1.5915   -0.0285 C.3       1 <0>        -0.1173
      2 C2          1.6686    1.9822    0.1505 C.3       1 <0>        -0.1322
      3 C3          2.1834    1.4221    1.4802 C.3       1 <0>         0.1124
      4 N1          1.9361   -0.0258    1.5109 N.am      1 <0>        -0.6093
      5 C4          0.5735   -0.5152    1.2605 C.3       1 <0>         0.0888
      6 H1         -0.0841   -0.1950    2.0687 H         1 <0>         0.0576
      7 C5          0.0768    0.0665   -0.0668 C.3       1 <0>        -0.1160
      8 C6          0.5835   -2.0202    1.1835 C.2       1 <0>         0.5206
      9 O1         -0.0585   -2.6760    1.9863 O.co2     1 <0>        -0.7044
     10 O2          1.2335   -2.5821    0.3185 O.co2     1 <0>        -0.6770
     11 C7          2.9400   -0.8888    1.7636 C.2       1 <0>         0.6906
     12 O3          2.7048   -2.0750    1.8898 O.2       1 <0>        -0.5114
     13 N2          4.2048   -0.4368    1.8763 N.am      1 <0>        -0.7441
     14 C8          5.3093   -1.3848    2.0422 C.3       1 <0>         0.1646
     15 H2          5.0989   -2.2966    1.4832 H         1 <0>         0.1135
     16 C9          5.4878   -1.7187    3.5325 C.3       1 <0>        -0.1417
     17 C10         6.8324   -2.4532    3.7514 C.3       1 <0>        -0.5693
     18 S1          7.8725   -1.8097    2.3779 S.o2      1 <0>         2.3762
     19 O4          8.8944   -0.9841    2.9196 O.2       1 <0>        -0.9424
     20 O5          8.2248   -2.8870    1.5209 O.2       1 <0>        -0.9333
     21 C11         6.6312   -0.7464    1.5277 C.3       1 <0>        -0.5893
     22 H3         -0.3840    1.9821    0.8049 H         1 <0>         0.0584
     23 H4         -0.1759    2.0096   -0.9624 H         1 <0>         0.0581
     24 H5          2.2571    1.5709   -0.6696 H         1 <0>         0.0653
     25 H6          1.7583    3.0685    0.1542 H         1 <0>         0.0661
     26 H7          3.2532    1.6120    1.5671 H         1 <0>         0.0672
     27 H8          1.6571    1.9003    2.3064 H         1 <0>         0.0615
     28 H9         -0.9665   -0.2106   -0.2177 H         1 <0>         0.0651
     29 H10         0.6803   -0.3267   -0.8849 H         1 <0>         0.0700
     30 H11         4.3836    0.5161    1.8476 H         1 <0>         0.3904
     31 H12         5.4805   -0.7964    4.1134 H         1 <0>         0.0852
     32 H13         4.6684   -2.3583    3.8607 H         1 <0>         0.1065
     33 H14         7.2631   -2.1913    4.7178 H         1 <0>         0.1405
     34 H15         6.7021   -3.5320    3.6648 H         1 <0>         0.1420
     35 H16         6.7149   -0.8325    0.4443 H         1 <0>         0.1464
     36 H17         6.7174    0.2924    1.8463 H         1 <0>         0.1408
@<TRIPOS>BOND
     1    1    7 1
     2    1    2 1
     3    1   22 1
     4    1   23 1
     5    2    3 1
     6    2   24 1
     7    2   25 1
     8    3    4 1
     9    3   26 1
    10    3   27 1
    11    4    5 1
    12    4   11 am
    13    5    6 1
    14    5    7 1
    15    5    8 1
    16    7   28 1
    17    7   29 1
    18    8    9 2
    19    8   10 1
    20   11   12 2
    21   11   13 am
    22   13   14 1
    23   13   30 1
    24   14   15 1
    25   14   21 1
    26   14   16 1
    27   16   17 1
    28   16   31 1
    29   16   32 1
    30   17   18 1
    31   17   33 1
    32   17   34 1
    33   18   19 2
    34   18   20 2
    35   18   21 1
    36   21   35 1
    37   21   36 1
@<TRIPOS>MOLECULE
ZINC44882230
   34    35     0     0     0
SMALL
USER_CHARGES

@<TRIPOS>ATOM
      1 C1         -0.0187    1.5258    0.0104 C.3       1 <0>        -0.1696
      2 C2          0.0021   -0.0041    0.0020 C.3       1 <0>         0.2042
      3 C3          0.6316   -0.4780   -1.3071 C.3       1 <0>        -0.1403
      4 C4          2.1687   -0.6368   -1.1396 C.3       1 <0>        -0.5579
      5 S1          2.2200   -1.3581    0.5597 S.o2      1 <0>         2.3643
      6 O1          1.9511   -2.7514    0.4843 O.2       1 <0>        -0.9321
      7 O2          3.3901   -0.9032    1.2254 O.2       1 <0>        -0.9408
      8 C5          0.7507   -0.4947    1.2566 C.3       1 <0>        -0.5819
      9 N1         -1.3784   -0.4911    0.0586 N.am      1 <0>        -0.7446
     10 C6         -2.2541   -0.1482   -0.9068 C.2       1 <0>         0.7311
     11 O3         -1.8984    0.5653   -1.8247 O.2       1 <0>        -0.5566
     12 N2         -3.5241   -0.5963   -0.8547 N.am      1 <0>        -0.6002
     13 C7         -3.9994   -1.4610    0.2472 C.3       1 <0>         0.1647
     14 S2         -5.4551   -2.2800   -0.5417 S.3       1 <0>        -0.3172
     15 C8         -5.8985   -0.8790   -1.6631 C.3       1 <0>        -0.0200
     16 C9         -4.4992   -0.2501   -1.8751 C.3       1 <0>         0.0705
     17 H1         -4.1187   -0.5779   -2.8425 H         1 <0>         0.0797
     18 C10        -4.6444    1.2495   -1.9086 C.2       1 <0>         0.5013
     19 O4         -5.2713    1.7813   -2.8089 O.co2     1 <0>        -0.6940
     20 O5         -4.1350    1.9310   -1.0353 O.co2     1 <0>        -0.6704
     21 H2          1.0039    1.9031    0.0027 H         1 <0>         0.0610
     22 H3         -0.5459    1.8868   -0.8726 H         1 <0>         0.0985
     23 H4         -0.5289    1.8773    0.9072 H         1 <0>         0.0637
     24 H5          0.1985   -1.4378   -1.5889 H         1 <0>         0.0901
     25 H6          0.4277    0.2521   -2.0904 H         1 <0>         0.1207
     26 H7          2.5796   -1.3267   -1.8767 H         1 <0>         0.1414
     27 H8          2.6742    0.3282   -1.1770 H         1 <0>         0.1400
     28 H9          1.0576    0.3483    1.8757 H         1 <0>         0.1514
     29 H10         0.1322   -1.1875    1.8273 H         1 <0>         0.1436
     30 H11        -1.6622   -1.0604    0.7909 H         1 <0>         0.3917
     31 H12        -3.2414   -2.1929    0.5260 H         1 <0>         0.1022
     32 H13        -4.3034   -0.8665    1.1087 H         1 <0>         0.0897
     33 H14        -6.3195   -1.2405   -2.6013 H         1 <0>         0.1176
     34 H15        -6.5735   -0.1776   -1.1729 H         1 <0>         0.0982
@<TRIPOS>BOND
     1    1    2 1
     2    1   21 1
     3    1   22 1
     4    1   23 1
     5    2    8 1
     6    2    3 1
     7    2    9 1
     8    3    4 1
     9    3   24 1
    10    3   25 1
    11    4    5 1
    12    4   26 1
    13    4   27 1
    14    5    6 2
    15    5    7 2
    16    5    8 1
    17    8   28 1
    18    8   29 1
    19    9   10 am
    20    9   30 1
    21   10   11 2
    22   10   12 am
    23   12   16 1
    24   12   13 1
    25   13   14 1
    26   13   31 1
    27   13   32 1
    28   14   15 1
    29   15   16 1
    30   15   33 1
    31   15   34 1
    32   16   17 1
    33   16   18 1
    34   18   19 2
    35   18   20 1
@<TRIPOS>MOLECULE
ZINC36855069
   29    30     0     0     0
SMALL
USER_CHARGES

@<TRIPOS>ATOM
      1 C1         -0.0187    1.5261    0.0104 C.3       1 <0>        -0.1142
      2 C2          1.4196    2.0513   -0.0005 C.3       1 <0>        -0.0991
      3 C3          2.1687    1.4902    1.2114 C.3       1 <0>        -0.1475
      4 H1          1.6939    1.8417    2.1274 H         1 <0>         0.0686
      5 C4          2.1260   -0.0390    1.1681 C.3       1 <0>         0.0714
      6 N1          0.7291   -0.4915    1.1811 N.3       1 <0>        -0.5256
      7 C5          0.0021   -0.0041    0.0020 C.3       1 <0>         0.0547
      8 C6          0.6507   -1.9551    1.2800 C.3       1 <0>         0.0459
      9 H2          1.1619   -2.4232    0.4388 H         1 <0>         0.0943
     10 C7         -0.8193   -2.4166    1.3469 C.3       1 <0>        -0.1553
     11 C8         -0.9139   -3.1058    2.6907 C.2       1 <0>         0.5394
     12 O1         -1.9117   -3.6217    3.1466 O.2       1 <0>        -0.4938
     13 N2          0.2791   -3.0560    3.2961 N.am      1 <0>        -0.6794
     14 C9          1.2360   -2.4323    2.5913 C.2       1 <0>         0.5375
     15 O2          2.3844   -2.2747    2.9463 O.2       1 <0>        -0.4548
     16 C10         3.6016    1.9555    1.1768 C.2       1 <0>         0.4974
     17 O3          3.8562    3.1477    1.1998 O.co2     1 <0>        -0.7008
     18 O4          4.5064    1.1399    1.1258 O.co2     1 <0>        -0.6954
     19 H3         -0.5279    1.8782    0.9076 H         1 <0>         0.0676
     20 H4         -0.5449    1.8878   -0.8730 H         1 <0>         0.0631
     21 H5          1.9171    1.7318   -0.9162 H         1 <0>         0.0511
     22 H6          1.4102    3.1401    0.0492 H         1 <0>         0.0667
     23 H7          2.6132   -0.3903    0.2586 H         1 <0>         0.0386
     24 H8          2.6463   -0.4415    2.0373 H         1 <0>         0.0947
     25 H9         -1.0203   -0.3813    0.0242 H         1 <0>         0.0728
     26 H10         0.4992   -0.3556   -0.9021 H         1 <0>         0.0365
     27 H11        -1.4925   -1.5603    1.3068 H         1 <0>         0.1314
     28 H12        -1.0387   -3.1165    0.5406 H         1 <0>         0.1204
     29 H13         0.4397   -3.4405    4.1720 H         1 <0>         0.4136
@<TRIPOS>BOND
     1    1    7 1
     2    1    2 1
     3    1   19 1
     4    1   20 1
     5    2    3 1
     6    2   21 1
     7    2   22 1
     8    3    4 1
     9    3    5 1
    10    3   16 1
    11    5    6 1
    12    5   23 1
    13    5   24 1
    14    6    7 1
    15    6    8 1
    16    7   25 1
    17    7   26 1
    18    8    9 1
    19    8   14 1
    20    8   10 1
    21   10   11 1
    22   10   27 1
    23   10   28 1
    24   11   12 2
    25   11   13 am
    26   13   14 am
    27   13   29 1
    28   14   15 2
    29   16   17 2
    30   16   18 1
@<TRIPOS>MOLECULE
ZINC62914145
   32    33     0     0     0
SMALL
USER_CHARGES

@<TRIPOS>ATOM
      1 C1         -0.0187    1.5258    0.0104 C.3       1 <0>        -0.1089
      2 C2          0.0021   -0.0041    0.0020 C.3       1 <0>        -0.1438
      3 C3         -1.4307   -0.5735    0.1764 C.3       1 <0>        -0.1091
      4 C4         -1.6023   -0.5179    1.7149 C.3       1 <0>         0.0982
      5 N1         -0.2746   -0.8619    2.2555 N.am      1 <0>        -0.6076
      6 C5          0.7430   -0.5469    1.2421 C.3       1 <0>         0.1311
      7 C6         -0.0335   -1.3788    3.4766 C.2       1 <0>         0.5333
      8 O1          1.1044   -1.6236    3.8176 O.2       1 <0>        -0.5427
      9 C7         -1.1777   -1.6525    4.4183 C.3       1 <0>        -0.1430
     10 H1         -1.8826   -2.3561    3.9753 H         1 <0>         0.1096
     11 C8         -0.6563   -2.1780    5.7836 C.3       1 <0>        -0.1357
     12 C9         -1.7853   -1.7025    6.7323 C.3       1 <0>         0.0508
     13 O2         -2.1969   -0.4269    6.2157 O.3       1 <0>        -0.3832
     14 C10        -1.8877   -0.3406    4.8162 C.3       1 <0>         0.0658
     15 C11         0.6343   -0.5198   -1.2650 C.2       1 <0>         0.5078
     16 O3          1.0532    0.2637   -2.1000 O.co2     1 <0>        -0.6889
     17 O4          0.7269   -1.7206   -1.4551 O.co2     1 <0>        -0.6914
     18 H2          1.0039    1.9031    0.0027 H         1 <0>         0.0529
     19 H3         -0.5459    1.8868   -0.8726 H         1 <0>         0.0569
     20 H4         -0.5289    1.8773    0.9072 H         1 <0>         0.0336
     21 H5         -2.1656    0.0587   -0.3218 H         1 <0>         0.0766
     22 H6         -1.4902   -1.5995   -0.1866 H         1 <0>         0.0824
     23 H7         -1.8913    0.4853    2.0284 H         1 <0>         0.0675
     24 H8         -2.3448   -1.2465    2.0404 H         1 <0>         0.0700
     25 H9          1.2954   -1.4489    0.9786 H         1 <0>         0.0758
     26 H10         1.4268    0.2101    1.6263 H         1 <0>         0.0597
     27 H11        -0.5767   -3.2651    5.7816 H         1 <0>         0.0878
     28 H12         0.2962   -1.7167    6.0442 H         1 <0>         0.0930
     29 H13        -2.6180   -2.4056    6.7118 H         1 <0>         0.0619
     30 H14        -1.4053   -1.5945    7.7482 H         1 <0>         0.0877
     31 H15        -1.2266    0.5070    4.6358 H         1 <0>         0.0739
     32 H16        -2.8042   -0.2260    4.2375 H         1 <0>         0.0779
@<TRIPOS>BOND
     1    1    2 1
     2    1   18 1
     3    1   19 1
     4    1   20 1
     5    2    6 1
     6    2    3 1
     7    2   15 1
     8    3    4 1
     9    3   21 1
    10    3   22 1
    11    4    5 1
    12    4   23 1
    13    4   24 1
    14    5    6 1
    15    5    7 am
    16    6   25 1
    17    6   26 1
    18    7    8 2
    19    7    9 1
    20    9   10 1
    21    9   14 1
    22    9   11 1
    23   11   12 1
    24   11   27 1
    25   11   28 1
    26   12   13 1
    27   12   29 1
    28   12   30 1
    29   13   14 1
    30   14   31 1
    31   14   32 1
    32   15   16 2
    33   15   17 1
@<TRIPOS>MOLECULE
ZINC20587474
   29    29     0     0     0
SMALL
USER_CHARGES
(2R,4R)-4-hydroxy-1-(3-methylbut-2-enoyl)pyrrolidine-2-carboxylic acid
@<TRIPOS>ATOM
      1 C1          2.4452    1.0207   -0.0158 C.3       1 <0>        -0.1269
      2 C2          1.1300    1.7564    0.0007 C.2       1 <0>        -0.0347
      3 C3         -0.0126    1.0758    0.0080 C.2       1 <0>        -0.2270
      4 C4         -1.2964    1.7939    0.0179 C.2       1 <0>         0.5703
      5 O1         -1.3129    3.0099    0.0246 O.2       1 <0>        -0.5183
      6 N1         -2.4543    1.1043    0.0197 N.am      1 <0>        -0.5884
      7 C5         -2.5795   -0.3646    0.0059 C.3       1 <0>         0.1149
      8 C6         -3.9721   -0.6474    0.6281 C.3       1 <0>         0.1018
      9 H1         -4.0014   -0.7777    1.7200 H         1 <0>         0.0699
     10 C7         -4.8109    0.5249    0.0540 C.3       1 <0>        -0.1293
     11 C8         -3.8018    1.6922    0.0293 C.3       1 <0>         0.0919
     12 H2         -3.8973    2.3518    0.9044 H         1 <0>         0.0810
     13 C9         -4.0066    2.5247   -1.2101 C.2       1 <0>         0.4656
     14 O2         -3.2882    2.3677   -2.1689 O.co2     1 <0>        -0.6237
     15 O3         -4.9870    3.4407   -1.2489 O.co2     1 <0>        -0.7682
     16 O4         -4.4820   -1.9069    0.1857 O.3       1 <0>        -0.6041
     17 C10         1.1096    3.2632    0.0090 C.3       1 <0>        -0.2160
     18 H3          3.2715    1.7468   -0.0198 H         1 <0>         0.0658
     19 H4          2.5034    0.3939   -0.9179 H         1 <0>         0.0723
     20 H5          2.5206    0.3844    0.8783 H         1 <0>         0.0711
     21 H6          0.0024   -0.0241    0.0066 H         1 <0>         0.1227
     22 H7         -2.5136   -0.7285   -1.0301 H         1 <0>         0.0776
     23 H8         -1.7682   -0.8074    0.6023 H         1 <0>         0.0770
     24 H9         -5.1747    0.2585   -0.9494 H         1 <0>         0.0852
     25 H10        -5.6682    0.7204    0.7149 H         1 <0>         0.0801
     26 H11        -5.4639   -2.2568    0.5371 H         1 <0>         0.4079
     27 H12         0.0677    3.6157    0.0208 H         1 <0>         0.1650
     28 H13         1.6145    3.6417   -0.8920 H         1 <0>         0.0595
     29 H14         1.6317    3.6320    0.9042 H         1 <0>         0.0571
@<TRIPOS>BOND
     1    1    2 1
     2    1   18 1
     3    1   19 1
     4    1   20 1
     5    2    3 2
     6    2   17 1
     7    3    4 1
     8    3   21 1
     9    4    5 2
    10    4    6 am
    11    6   11 1
    12    6    7 1
    13    7    8 1
    14    7   22 1
    15    7   23 1
    16    8    9 1
    17    8   10 1
    18    8   16 1
    19   10   11 1
    20   10   24 1
    21   10   25 1
    22   11   12 1
    23   11   13 1
    24   13   14 2
    25   13   15 1
    26   16   26 1
    27   17   27 1
    28   17   28 1
    29   17   29 1
@<TRIPOS>MOLECULE
ZINC37454787
   31    32     0     0     0
SMALL
USER_CHARGES

@<TRIPOS>ATOM
      1 C1         -0.1209    1.4721    0.0043 C.3       1 <0>        -0.1319
      2 C2         -0.0467   -0.0330    0.0069 C.2       1 <0>        -0.0079
      3 C3         -0.1443   -0.7618   -1.1849 C.2       1 <0>         0.0624
      4 N1         -0.0790   -2.0653   -1.1736 N.2       1 <0>        -0.2148
      5 N2          0.0752   -2.7476   -0.0985 N.am      1 <0>        -0.4475
      6 H1          0.1162   -3.7150   -0.1566 H         1 <0>         0.4397
      7 C4          0.1824   -2.1602    1.1088 C.2       1 <0>         0.4911
      8 O1          0.3291   -2.8348    2.1135 O.2       1 <0>        -0.4888
      9 C5          0.1268   -0.7406    1.1944 C.2       1 <0>        -0.1839
     10 C6          0.2440   -0.0464    2.4895 C.2       1 <0>         0.6008
     11 O2          1.3419    0.1793    2.9613 O.2       1 <0>        -0.4907
     12 N3         -0.8656    0.3383    3.1507 N.am      1 <0>        -0.5778
     13 C7         -2.2196   -0.0029    2.6627 C.3       1 <0>         0.1690
     14 S1         -3.2368    1.3008    3.4860 S.3       1 <0>        -0.3172
     15 C8         -2.1706    1.4795    4.9853 C.3       1 <0>        -0.0181
     16 C9         -0.7938    1.1047    4.3832 C.3       1 <0>         0.0530
     17 H2         -0.2433    2.0248    4.1869 H         1 <0>         0.0823
     18 C10        -0.0244    0.3025    5.4010 C.2       1 <0>         0.4961
     19 O3          0.3195    0.8188    6.4506 O.co2     1 <0>        -0.6947
     20 O4          0.2540   -0.8627    5.1748 O.co2     1 <0>        -0.6581
     21 C11        -0.3268   -0.0345   -2.4921 C.3       1 <0>        -0.0875
     22 H3          0.8869    1.8855   -0.0358 H         1 <0>         0.0938
     23 H4         -0.6857    1.8066   -0.8659 H         1 <0>         0.0887
     24 H5         -0.6176    1.8130    0.9128 H         1 <0>         0.0833
     25 H6         -2.2780    0.0815    1.5775 H         1 <0>         0.1019
     26 H7         -2.5161   -0.9983    2.9932 H         1 <0>         0.0902
     27 H8         -2.1778    2.5042    5.3568 H         1 <0>         0.1187
     28 H9         -2.4622    0.7759    5.7650 H         1 <0>         0.0991
     29 H10         0.6493    0.1913   -2.9216 H         1 <0>         0.0823
     30 H11        -0.8907   -0.6626   -3.1817 H         1 <0>         0.0808
     31 H12        -0.8709    0.8939   -2.3185 H         1 <0>         0.0856
@<TRIPOS>BOND
     1    1    2 1
     2    1   22 1
     3    1   23 1
     4    1   24 1
     5    2    9 2
     6    2    3 1
     7    3    4 2
     8    3   21 1
     9    4    5 1
    10    5    6 1
    11    5    7 am
    12    7    8 2
    13    7    9 1
    14    9   10 1
    15   10   11 2
    16   10   12 am
    17   12   16 1
    18   12   13 1
    19   13   14 1
    20   13   25 1
    21   13   26 1
    22   14   15 1
    23   15   16 1
    24   15   27 1
    25   15   28 1
    26   16   17 1
    27   16   18 1
    28   18   19 2
    29   18   20 1
    30   21   29 1
    31   21   30 1
    32   21   31 1
@<TRIPOS>MOLECULE
ZINC40582451
   35    36     0     0     0
SMALL
USER_CHARGES

@<TRIPOS>ATOM
      1 C1         -0.0041    0.6362   -0.8789 C.3       1 <0>        -0.1307
      2 C2          1.2708    1.4795   -0.8036 C.3       1 <0>        -0.1086
      3 C3          1.7297    1.5846    0.6525 C.3       1 <0>        -0.1039
      4 H1          0.9377    2.0332    1.2522 H         1 <0>         0.0693
      5 C4          2.0444    0.1838    1.1868 C.3       1 <0>         0.0812
      6 N1          0.8691   -0.6745    0.9850 N.am      1 <0>        -0.6135
      7 C5          0.2910   -0.7754   -0.3620 C.3       1 <0>         0.1455
      8 C6          0.3317   -1.3565    2.0158 C.2       1 <0>         0.7482
      9 O1         -0.8714   -1.5226    2.0735 O.2       1 <0>        -0.6013
     10 N2          1.1279   -1.8544    2.9825 N.am      1 <0>        -0.6082
     11 C7          0.6619   -2.9111    3.9067 C.3       1 <0>         0.2015
     12 S1          1.8101   -2.6717    5.3337 S.3       1 <0>        -0.3311
     13 C8          3.2437   -2.0528    4.3445 C.3       1 <0>        -0.0219
     14 C9          2.4908   -1.3853    3.1672 C.3       1 <0>         0.0337
     15 H2          2.4657   -0.3096    3.3419 H         1 <0>         0.0913
     16 C10         3.2603   -1.6392    1.8966 C.2       1 <0>         0.5041
     17 O2          4.3738   -1.1638    1.7529 O.co2     1 <0>        -0.6908
     18 O3          2.7693   -2.3199    1.0123 O.co2     1 <0>        -0.6665
     19 C11         2.9851    2.4556    0.7307 C.3       1 <0>         0.0876
     20 O4          3.3460    2.6493    2.0998 O.3       1 <0>        -0.5681
     21 H3         -0.7798    1.0937   -0.2649 H         1 <0>         0.0633
     22 H4         -0.3434    0.5812   -1.9133 H         1 <0>         0.0693
     23 H5          2.0535    1.0083   -1.3980 H         1 <0>         0.0661
     24 H6          1.0697    2.4772   -1.1939 H         1 <0>         0.0580
     25 H7          2.8962   -0.2303    0.6472 H         1 <0>         0.1068
     26 H8          2.2762    0.2419    2.2503 H         1 <0>         0.1051
     27 H9         -0.6342   -1.3501   -0.3204 H         1 <0>         0.0763
     28 H10         0.9998   -1.2677   -1.0278 H         1 <0>         0.0641
     29 H11        -0.3733   -2.7432    4.2041 H         1 <0>         0.1109
     30 H12         0.7856   -3.9001    3.4656 H         1 <0>         0.0864
     31 H13         3.8288   -1.3255    4.9073 H         1 <0>         0.1150
     32 H14         3.8682   -2.8749    3.9949 H         1 <0>         0.0960
     33 H15         3.8030    1.9622    0.2057 H         1 <0>         0.0511
     34 H16         2.7863    3.4219    0.2672 H         1 <0>         0.0394
     35 H17         4.1353    3.1937    2.2252 H         1 <0>         0.3746
@<TRIPOS>BOND
     1    1    7 1
     2    1    2 1
     3    1   21 1
     4    1   22 1
     5    2    3 1
     6    2   23 1
     7    2   24 1
     8    3    4 1
     9    3    5 1
    10    3   19 1
    11    5    6 1
    12    5   25 1
    13    5   26 1
    14    6    7 1
    15    6    8 am
    16    7   27 1
    17    7   28 1
    18    8    9 2
    19    8   10 am
    20   10   14 1
    21   10   11 1
    22   11   12 1
    23   11   29 1
    24   11   30 1
    25   12   13 1
    26   13   14 1
    27   13   31 1
    28   13   32 1
    29   14   15 1
    30   14   16 1
    31   16   17 2
    32   16   18 1
    33   19   20 1
    34   19   33 1
    35   19   34 1
    36   20   35 1
@<TRIPOS>MOLECULE
ZINC43700328
   26    27     0     0     0
SMALL
USER_CHARGES

@<TRIPOS>ATOM
      1 C1         -0.0187    1.5258    0.0104 C.3       1 <0>        -0.1487
      2 C2          1.3165    0.7789   -0.0063 C.3       1 <0>        -0.1524
      3 C3          0.0021   -0.0041    0.0020 C.3       1 <0>        -0.1939
      4 C4         -0.4023   -0.6984   -1.2729 C.2       1 <0>         0.5399
      5 O1         -0.7279   -0.0458   -2.2419 O.2       1 <0>        -0.5420
      6 N1         -0.4023   -2.0447   -1.3362 N.am      1 <0>        -0.6089
      7 C5         -0.0172   -2.8578   -0.1717 C.3       1 <0>         0.0731
      8 C6         -1.1057   -3.9113    0.0636 C.3       1 <0>         0.0376
      9 O2         -1.3457   -4.6203   -1.1544 O.3       1 <0>        -0.3472
     10 C7         -1.8387   -3.8039   -2.2194 C.3       1 <0>         0.0128
     11 H1         -2.7596   -3.3126   -1.9052 H         1 <0>         0.0544
     12 C8         -0.7932   -2.7450   -2.5699 C.3       1 <0>         0.1022
     13 C9         -2.1133   -4.6632   -3.4266 C.2       1 <0>         0.5082
     14 O3         -1.9062   -5.8638   -3.3802 O.co2     1 <0>        -0.6697
     15 O4         -2.5425   -4.1577   -4.4498 O.co2     1 <0>        -0.6853
     16 H2         -0.3072    2.0201    0.9381 H         1 <0>         0.1014
     17 H3         -0.3248    2.0300   -0.9061 H         1 <0>         0.1076
     18 H4          1.8888    0.7918   -0.9339 H         1 <0>         0.0988
     19 H5          1.9064    0.7818    0.9103 H         1 <0>         0.1029
     20 H6         -0.2728   -0.5162    0.9241 H         1 <0>         0.1235
     21 H7          0.9350   -3.3511   -0.3671 H         1 <0>         0.0766
     22 H8          0.0728   -2.2201    0.7077 H         1 <0>         0.0885
     23 H9         -0.7760   -4.6099    0.8326 H         1 <0>         0.0990
     24 H10        -2.0239   -3.4203    0.3861 H         1 <0>         0.0458
     25 H11        -1.2169   -2.0327   -3.2779 H         1 <0>         0.1040
     26 H12         0.0795   -3.2267   -3.0109 H         1 <0>         0.0718
@<TRIPOS>BOND
     1    1    3 1
     2    1    2 1
     3    1   16 1
     4    1   17 1
     5    2    3 1
     6    2   18 1
     7    2   19 1
     8    3    4 1
     9    3   20 1
    10    4    5 2
    11    4    6 am
    12    6   12 1
    13    6    7 1
    14    7    8 1
    15    7   21 1
    16    7   22 1
    17    8    9 1
    18    8   23 1
    19    8   24 1
    20    9   10 1
    21   10   11 1
    22   10   12 1
    23   10   13 1
    24   12   25 1
    25   12   26 1
    26   13   14 2
    27   13   15 1
@<TRIPOS>MOLECULE
ZINC62938571
   27    28     0     0     0
SMALL
USER_CHARGES

@<TRIPOS>ATOM
      1 C1         -2.4552   -0.6286   -0.6161 C.3       1 <0>         0.0934
      2 N1         -1.0607   -0.9159   -0.2713 N.pl3     1 <0>        -0.3913
      3 C2          0.0085   -0.9106   -1.1006 C.2       1 <0>         0.4972
      4 N2          1.0611   -1.2222   -0.3771 N.2       1 <0>        -0.3314
      5 N3          0.7235   -1.4216    0.8458 N.2       1 <0>        -0.0437
      6 N4         -0.5457   -1.2503    0.9934 N.2       1 <0>        -0.0961
      7 N5         -0.0038   -0.6302   -2.4556 N.pl3     1 <0>        -0.6322
      8 C3          0.1199    0.7531   -2.9351 C.3       1 <0>         0.1485
      9 C4          1.2709    0.8244   -3.9435 C.3       1 <0>        -0.1344
     10 C5          1.0383   -0.2061   -5.0507 C.3       1 <0>        -0.0928
     11 C6          1.0131   -1.6114   -4.4450 C.3       1 <0>        -0.1683
     12 H1          1.9565   -1.8043   -3.9343 H         1 <0>         0.0703
     13 C7         -0.1347   -1.7108   -3.4425 C.3       1 <0>         0.1725
     14 C8          0.8170   -2.6277   -5.5403 C.2       1 <0>         0.5008
     15 O1          1.6289   -2.7123   -6.4460 O.co2     1 <0>        -0.6949
     16 O2         -0.1534   -3.3655   -5.5207 O.co2     1 <0>        -0.6992
     17 H2         -2.6531    0.4339   -0.4742 H         1 <0>         0.0849
     18 H3         -2.6344   -0.8956   -1.6576 H         1 <0>         0.0999
     19 H4         -3.1158   -1.2102    0.0269 H         1 <0>         0.0969
     20 H5         -0.8087    1.0568   -3.4184 H         1 <0>         0.0618
     21 H6          0.3296    1.4139   -2.0940 H         1 <0>         0.0633
     22 H7          1.3121    1.8229   -4.3786 H         1 <0>         0.0682
     23 H8          2.2119    0.6085   -3.4374 H         1 <0>         0.0672
     24 H9          0.0854   -0.0045   -5.5401 H         1 <0>         0.0548
     25 H10         1.8432   -0.1406   -5.7828 H         1 <0>         0.0686
     26 H11        -0.0930   -2.6752   -2.9361 H         1 <0>         0.0674
     27 H12        -1.0845   -1.6126   -3.9681 H         1 <0>         0.0686
@<TRIPOS>BOND
     1    1    2 1
     2    1   17 1
     3    1   18 1
     4    1   19 1
     5    2    6 1
     6    2    3 1
     7    3    4 2
     8    3    7 1
     9    4    5 1
    10    5    6 2
    11    7   13 1
    12    7    8 1
    13    8    9 1
    14    8   20 1
    15    8   21 1
    16    9   10 1
    17    9   22 1
    18    9   23 1
    19   10   11 1
    20   10   24 1
    21   10   25 1
    22   11   12 1
    23   11   13 1
    24   11   14 1
    25   13   26 1
    26   13   27 1
    27   14   15 2
    28   14   16 1
@<TRIPOS>MOLECULE
ZINC06365035
   34    36     0     0     0
SMALL
USER_CHARGES
(4S)-6-amino-4-(3-furyl)-3-isopropyl-1,4-dihydropyrano[5,6-d]pyrazole-5-carbonitrile
@<TRIPOS>ATOM
      1 C1          4.0775    5.4346   -0.2549 C.3       1 <0>        -0.1435
      2 C2          3.4017    4.4996    0.7501 C.3       1 <0>        -0.0158
      3 C3          3.8408    4.8717    2.1678 C.3       1 <0>        -0.1468
      4 C4          1.9053    4.6362    0.6356 C.2       1 <0>         0.1238
      5 C5          1.0164    3.6198    0.3126 C.2       1 <0>        -0.2647
      6 C6         -0.2458    4.1450    0.3130 C.2       1 <0>         0.2587
      7 N1         -0.1435    5.4469    0.6246 N.pl3     1 <0>        -0.4567
      8 H1         -1.0472    6.0716    0.6811 H         1 <0>         0.4763
      9 N2          1.2155    5.7361    0.8242 N.2       1 <0>        -0.2493
     10 O1         -1.3474    3.4037    0.0367 O.3       1 <0>        -0.2349
     11 C7         -1.2106    2.0623    0.0191 C.2       1 <0>         0.4469
     12 C8         -0.0173    1.4278    0.0099 C.2       1 <0>        -0.2726
     13 C9          1.2947    2.1719    0.0014 C.3       1 <0>         0.1517
     14 H2          1.9791    1.7470    0.7504 H         1 <0>         0.0930
     15 C10         1.9350    2.0580   -1.3581 C.2       1 <0>        -0.1646
     16 C11         3.1963    1.4901   -1.6504 C.2       1 <0>        -0.2050
     17 C12         3.3725    1.5954   -2.9798 C.2       1 <0>        -0.0418
     18 O2          2.2909    2.1935   -3.5051 O.3       1 <0>        -0.1772
     19 C13         1.4136    2.4718   -2.5270 C.2       1 <0>        -0.0285
     20 C14         0.0021   -0.0041    0.0020 C.1       1 <0>         0.2757
     21 N3          0.0175   -1.1399   -0.0042 N.1       1 <0>        -0.4480
     22 N4         -2.3498    1.2964    0.0159 N.pl3     1 <0>        -0.8576
     23 H3          3.7619    5.1672   -1.2741 H         1 <0>         0.0565
     24 H4          5.1698    5.3350   -0.1713 H         1 <0>         0.0637
     25 H5          3.7867    6.4738   -0.0418 H         1 <0>         0.0615
     26 H6          3.6773    3.4567    0.5347 H         1 <0>         0.0933
     27 H7          3.3550    4.1995    2.8904 H         1 <0>         0.0570
     28 H8          3.5500    5.9110    2.3808 H         1 <0>         0.0624
     29 H9          4.9331    4.7721    2.2513 H         1 <0>         0.0646
     30 H10         3.8863    1.0557   -0.9421 H         1 <0>         0.1471
     31 H11         4.2372    1.2567   -3.5311 H         1 <0>         0.2002
     32 H12         0.4535    2.9490   -2.6566 H         1 <0>         0.1897
     33 H13        -2.2747    0.1991    0.0017 H         1 <0>         0.4519
     34 H14        -3.3377    1.7800    0.0275 H         1 <0>         0.4326
@<TRIPOS>BOND
     1    1    2 1
     2    1   23 1
     3    1   24 1
     4    1   25 1
     5    2    3 1
     6    2    4 1
     7    2   26 1
     8    3   27 1
     9    3   28 1
    10    3   29 1
    11    4    9 2
    12    4    5 1
    13    5   13 1
    14    5    6 2
    15    6    7 1
    16    6   10 1
    17    7    8 1
    18    7    9 1
    19   10   11 1
    20   11   12 2
    21   11   22 1
    22   12   13 1
    23   12   20 1
    24   13   14 1
    25   13   15 1
    26   15   19 2
    27   15   16 1
    28   16   17 2
    29   16   30 1
    30   17   18 1
    31   17   31 1
    32   18   19 1
    33   19   32 1
    34   20   21 3
    35   22   33 1
    36   22   34 1
@<TRIPOS>MOLECULE
ZINC38032781
   39    41     0     0     0
SMALL
USER_CHARGES

@<TRIPOS>ATOM
      1 C1         -0.0184    1.5028    0.0103 C.3       1 <0>        -0.1411
      2 C2          0.0021   -0.0041    0.0020 C.2       1 <0>         0.2194
      3 C3          0.0079   -0.7958   -1.0953 C.2       1 <0>        -0.8208
      4 C4          0.0284   -2.1267   -0.6656 C.2       1 <0>         0.1699
      5 N1          0.0347   -2.1338    0.6427 N.2       1 <0>        -0.2900
      6 N2          0.0237   -0.8054    1.0876 N.pl3     1 <0>        -0.4617
      7 H1          0.0286   -0.5133    2.0125 H         1 <0>         0.4421
      8 C5          0.0404   -3.3426   -1.5559 C.3       1 <0>        -0.1121
      9 S1         -0.0081   -0.2472   -2.7696 S.o2      1 <0>         2.7270
     10 O1         -0.5477   -1.3118   -3.5407 O.2       1 <0>        -0.9516
     11 O2         -0.5775    1.0548   -2.7649 O.2       1 <0>        -0.9584
     12 N3          1.5692   -0.0722   -3.2427 N.pl3     1 <0>        -0.9971
     13 C6          2.2855    1.2017   -3.0641 C.3       1 <0>         0.1215
     14 C7          3.4302    0.9630   -2.0807 C.3       1 <0>        -0.0907
     15 C8          4.2029   -0.2763   -2.4477 C.ar      1 <0>        -0.1441
     16 C9          3.6872   -1.2683   -3.2494 C.ar      1 <0>        -0.0463
     17 C10         4.4494   -2.3933   -3.5353 C.ar      1 <0>        -0.1740
     18 C11         5.7276   -2.5246   -3.0305 C.ar      1 <0>        -0.0683
     19 C12         6.2560   -1.5290   -2.2328 C.ar      1 <0>        -0.2002
     20 C13         5.4969   -0.4064   -1.9404 C.ar      1 <0>         0.2168
     21 N4          6.0301    0.6006   -1.1325 N.pl3     1 <0>        -0.8789
     22 C14         2.3108   -1.1821   -3.8508 C.3       1 <0>         0.1636
     23 H2          1.0042    1.8801    0.0026 H         1 <0>         0.0951
     24 H3         -0.5455    1.8639   -0.8728 H         1 <0>         0.1270
     25 H4         -0.5286    1.8543    0.9071 H         1 <0>         0.0868
     26 H5          1.0708   -3.6217   -1.7759 H         1 <0>         0.0867
     27 H6         -0.4595   -4.1685   -1.0497 H         1 <0>         0.0840
     28 H7         -0.4815   -3.1172   -2.4858 H         1 <0>         0.1120
     29 H8          2.6852    1.5373   -4.0209 H         1 <0>         0.0848
     30 H9          1.6058    1.9538   -2.6634 H         1 <0>         0.0985
     31 H10         4.1013    1.8218   -2.0966 H         1 <0>         0.0791
     32 H11         3.0219    0.8467   -1.0767 H         1 <0>         0.0703
     33 H12         4.0380   -3.1735   -4.1585 H         1 <0>         0.1228
     34 H13         6.3125   -3.4032   -3.2591 H         1 <0>         0.1230
     35 H14         7.2567   -1.6246   -1.8381 H         1 <0>         0.1190
     36 H15         5.5015    1.3872   -0.9257 H         1 <0>         0.3965
     37 H16         6.9289    0.5133   -0.7784 H         1 <0>         0.3984
     38 H17         1.7780   -2.1158   -3.6713 H         1 <0>         0.1003
     39 H18         2.3974   -1.0152   -4.9245 H         1 <0>         0.0905
@<TRIPOS>BOND
     1    1    2 1
     2    1   23 1
     3    1   24 1
     4    1   25 1
     5    2    6 1
     6    2    3 2
     7    3    4 1
     8    3    9 1
     9    4    5 2
    10    4    8 1
    11    5    6 1
    12    6    7 1
    13    8   26 1
    14    8   27 1
    15    8   28 1
    16    9   10 2
    17    9   11 2
    18    9   12 1
    19   12   22 1
    20   12   13 1
    21   13   14 1
    22   13   29 1
    23   13   30 1
    24   14   15 1
    25   14   31 1
    26   14   32 1
    27   15   20 ar
    28   15   16 ar
    29   16   17 ar
    30   16   22 1
    31   17   18 ar
    32   17   33 1
    33   18   19 ar
    34   18   34 1
    35   19   20 ar
    36   19   35 1
    37   20   21 1
    38   21   36 1
    39   21   37 1
    40   22   38 1
    41   22   39 1
@<TRIPOS>MOLECULE
ZINC44593324
   40    42     0     0     0
SMALL
USER_CHARGES

@<TRIPOS>ATOM
      1 C1          0.5440    0.9477   -0.5845 C.2       1 <0>        -0.1295
      2 C2          1.8331    1.2618   -0.8479 C.2       1 <0>        -0.1742
      3 S1          2.6382   -0.3252   -0.6900 S.3       1 <0>         0.0065
      4 C3          1.2008   -1.2838   -0.2893 C.2       1 <0>        -0.1682
      5 C4          0.1935   -0.3689   -0.2898 C.2       1 <0>        -0.0824
      6 C5         -1.2362   -0.8034    0.0274 C.3       1 <0>         0.1410
      7 H1         -1.5144   -0.4586    1.0233 H         1 <0>         0.0763
      8 N1         -1.2809   -2.2710   -0.0214 N.am      1 <0>        -0.6061
      9 C6         -0.2347   -3.0411    0.6677 C.3       1 <0>         0.1183
     10 C7          1.1093   -2.7501   -0.0179 C.3       1 <0>        -0.0464
     11 C8         -2.2672   -2.9028   -0.6881 C.2       1 <0>         0.6904
     12 O1         -3.0804   -2.2598   -1.3234 O.2       1 <0>        -0.5051
     13 N2         -2.3522   -4.2474   -0.6506 N.am      1 <0>        -0.7551
     14 C9         -3.3536   -4.9411   -1.4643 C.3       1 <0>         0.1578
     15 C10        -4.6833   -4.9920   -0.7064 C.3       1 <0>        -0.1639
     16 C11        -5.7018   -5.7863   -1.5270 C.3       1 <0>        -0.0032
     17 N3         -5.2058   -7.1513   -1.7403 N.4       1 <0>        -0.5050
     18 C12        -3.9682   -7.1141   -2.5285 C.3       1 <0>        -0.0003
     19 C13        -2.8831   -6.3708   -1.7465 C.3       1 <0>        -0.1564
     20 C14        -2.1829   -0.2285   -0.9945 C.2       1 <0>         0.5262
     21 O2         -2.1066   -0.5771   -2.1603 O.co2     1 <0>        -0.6606
     22 O3         -3.0252    0.5852   -0.6554 O.co2     1 <0>        -0.6967
     23 H2         -0.2130    1.7178   -0.5982 H         1 <0>         0.1353
     24 H3          2.2636    2.2220   -1.0909 H         1 <0>         0.1853
     25 H4         -0.1860   -2.7402    1.7142 H         1 <0>         0.0750
     26 H5         -0.4581   -4.1059    0.6011 H         1 <0>         0.0760
     27 H6          1.1673   -3.3001   -0.9572 H         1 <0>         0.0790
     28 H7          1.9267   -3.0526    0.6367 H         1 <0>         0.0856
     29 H8         -1.7503   -4.7558   -0.0848 H         1 <0>         0.3896
     30 H9         -3.4897   -4.4095   -2.4062 H         1 <0>         0.1039
     31 H10        -4.5343   -5.4779    0.2578 H         1 <0>         0.0857
     32 H11        -5.0526   -3.9783   -0.5507 H         1 <0>         0.1221
     33 H12        -6.6497   -5.8244   -0.9903 H         1 <0>         0.1336
     34 H13        -5.8502   -5.2994   -2.4908 H         1 <0>         0.1343
     35 H14        -5.0221   -7.5846   -0.8478 H         1 <0>         0.4255
     36 H15        -3.6363   -8.1323   -2.7313 H         1 <0>         0.1345
     37 H16        -4.1536   -6.5989   -3.4710 H         1 <0>         0.1342
     38 H17        -1.9655   -6.3427   -2.3342 H         1 <0>         0.1173
     39 H18        -2.6967   -6.8854   -0.8039 H         1 <0>         0.0904
     40 H19        -5.9026   -7.6877   -2.2351 H         1 <0>         0.4295
@<TRIPOS>BOND
     1    1    5 1
     2    1    2 2
     3    1   23 1
     4    2    3 1
     5    2   24 1
     6    3    4 1
     7    4   10 1
     8    4    5 2
     9    5    6 1
    10    6    7 1
    11    6    8 1
    12    6   20 1
    13    8    9 1
    14    8   11 am
    15    9   10 1
    16    9   25 1
    17    9   26 1
    18   10   27 1
    19   10   28 1
    20   11   12 2
    21   11   13 am
    22   13   14 1
    23   13   29 1
    24   14   19 1
    25   14   15 1
    26   14   30 1
    27   15   16 1
    28   15   31 1
    29   15   32 1
    30   16   17 1
    31   16   33 1
    32   16   34 1
    33   17   18 1
    34   17   35 1
    35   17   40 1
    36   18   19 1
    37   18   36 1
    38   18   37 1
    39   19   38 1
    40   19   39 1
    41   20   21 2
    42   20   22 1
@<TRIPOS>MOLECULE
ZINC51124302
   40    42     0     0     0
SMALL
USER_CHARGES

@<TRIPOS>ATOM
      1 C1          0.2048    1.3767   -0.6687 C.ar      1 <0>        -0.1783
      2 C2          1.1933    2.0787    0.0226 C.ar      1 <0>        -0.0299
      3 C3          2.1546    1.3469    0.7284 C.ar      1 <0>        -0.2031
      4 C4          2.0923   -0.0334    0.7166 C.ar      1 <0>         0.2271
      5 N1          1.1430   -0.6646    0.0517 N.ar      1 <0>        -0.5103
      6 C5          0.2136   -0.0132   -0.6293 C.ar      1 <0>         0.4314
      7 N2         -0.7648   -0.7265   -1.3125 N.pl3     1 <0>        -0.5651
      8 N3         -0.7632   -2.0921   -1.2789 N.3       1 <0>        -0.5963
      9 Cl1         3.2806   -0.9507    1.5886 Cl        1 <0>        -0.0190
     10 C6          1.2243    3.5600    0.0090 C.2       1 <0>         0.5673
     11 O1          0.1888    4.1885   -0.0869 O.2       1 <0>        -0.5114
     12 N4          2.4011    4.2103    0.1030 N.am      1 <0>        -0.6038
     13 C7          3.6830    3.4833    0.0844 C.3       1 <0>         0.0530
     14 C8          4.6076    4.1357   -0.9480 C.3       1 <0>         0.0476
     15 O2          4.6708    5.5477   -0.7197 O.3       1 <0>        -0.3718
     16 C9          3.4112    6.2025   -0.8508 C.3       1 <0>         0.0789
     17 H1          2.9951    5.9897   -1.8355 H         1 <0>         0.0623
     18 C10         2.4589    5.6727    0.2220 C.3       1 <0>         0.1183
     19 H2          2.8364    5.9442    1.2078 H         1 <0>         0.0857
     20 C11         1.0796    6.2919    0.0063 C.3       1 <0>        -0.1067
     21 C12         1.1933    7.8138    0.1406 C.3       1 <0>        -0.1297
     22 C13         2.1774    8.3577   -0.8953 C.3       1 <0>        -0.1192
     23 C14         3.5476    7.7132   -0.6758 C.3       1 <0>        -0.1087
     24 H3         -0.5578    1.9048   -1.2218 H         1 <0>         0.1497
     25 H4          2.9355    1.8544    1.2751 H         1 <0>         0.1553
     26 H5         -1.4486   -0.2545   -1.8130 H         1 <0>         0.4167
     27 H6         -1.5289   -2.4679   -1.8179 H         1 <0>         0.3586
     28 H7          0.1197   -2.4606   -1.5993 H         1 <0>         0.3464
     29 H8          4.1448    3.5321    1.0705 H         1 <0>         0.0867
     30 H9          3.5085    2.4424   -0.1879 H         1 <0>         0.1110
     31 H10         5.6069    3.7094   -0.8600 H         1 <0>         0.1120
     32 H11         4.2217    3.9476   -1.9499 H         1 <0>         0.0568
     33 H12         0.7177    6.0393   -0.9904 H         1 <0>         0.0744
     34 H13         0.3866    5.9100    0.7560 H         1 <0>         0.0905
     35 H14         0.2140    8.2652   -0.0188 H         1 <0>         0.0700
     36 H15         1.5465    8.0633    1.1411 H         1 <0>         0.0637
     37 H16         1.8098    8.1328   -1.8965 H         1 <0>         0.0661
     38 H17         2.2658    9.4378   -0.7782 H         1 <0>         0.0720
     39 H18         3.9201    7.9326    0.3248 H         1 <0>         0.0767
     40 H19         4.2410    8.1057   -1.4196 H         1 <0>         0.0750
@<TRIPOS>BOND
     1    1    6 ar
     2    1    2 ar
     3    1   24 1
     4    2    3 ar
     5    2   10 1
     6    3    4 ar
     7    3   25 1
     8    4    5 ar
     9    4    9 1
    10    5    6 ar
    11    6    7 1
    12    7    8 1
    13    7   26 1
    14    8   27 1
    15    8   28 1
    16   10   11 2
    17   10   12 am
    18   12   18 1
    19   12   13 1
    20   13   14 1
    21   13   29 1
    22   13   30 1
    23   14   15 1
    24   14   31 1
    25   14   32 1
    26   15   16 1
    27   16   17 1
    28   16   23 1
    29   16   18 1
    30   18   19 1
    31   18   20 1
    32   20   21 1
    33   20   33 1
    34   20   34 1
    35   21   22 1
    36   21   35 1
    37   21   36 1
    38   22   23 1
    39   22   37 1
    40   22   38 1
    41   23   39 1
    42   23   40 1
@<TRIPOS>MOLECULE
ZINC62364034
   30    31     0     0     0
SMALL
USER_CHARGES

@<TRIPOS>ATOM
      1 C1         -0.0187    1.5258    0.0104 C.3       1 <0>        -0.1685
      2 C2          0.0021   -0.0041    0.0020 C.3       1 <0>         0.1967
      3 C3         -1.4360   -0.5128   -0.0870 C.3       1 <0>        -0.1431
      4 C4         -1.5565   -1.9087    0.5858 C.3       1 <0>        -0.5641
      5 S1         -0.4536   -1.6440    2.0432 S.o2      1 <0>         2.3654
      6 O1          0.2029   -2.8638    2.3601 O.2       1 <0>        -0.9351
      7 O2         -1.1725   -0.9497    3.0533 O.2       1 <0>        -0.9241
      8 C5          0.7507   -0.4947    1.2566 C.3       1 <0>        -0.5891
      9 N1          0.7307   -0.4557   -1.1860 N.pl3     1 <0>        -0.7083
     10 C6          0.2872   -0.0947   -2.4512 C.ar      1 <0>         0.4001
     11 C7          0.9718   -0.5249   -3.5956 C.ar      1 <0>         0.0828
     12 C8          0.4859   -0.1353   -4.8361 C.ar      1 <0>         0.1605
     13 N2         -0.6005    0.6243   -4.8937 N.ar      1 <0>        -0.5103
     14 C9         -1.2185    1.0099   -3.7964 C.ar      1 <0>         0.2996
     15 N3         -0.7964    0.6598   -2.5973 N.ar      1 <0>        -0.5349
     16 Cl1         1.2888   -0.6345   -6.2920 Cl        1 <0>        -0.0171
     17 N4          2.1165   -1.3266   -3.4905 N.pl3     1 <0>        -0.8619
     18 H1          1.0039    1.9031    0.0027 H         1 <0>         0.0621
     19 H2         -0.5459    1.8868   -0.8726 H         1 <0>         0.0952
     20 H3         -0.5289    1.8773    0.9072 H         1 <0>         0.0732
     21 H4         -2.0989    0.1896    0.4184 H         1 <0>         0.1028
     22 H5         -1.7267   -0.5910   -1.1346 H         1 <0>         0.1206
     23 H6         -2.5814   -2.1136    0.8951 H         1 <0>         0.1445
     24 H7         -1.1750   -2.6969   -0.0633 H         1 <0>         0.1351
     25 H8          1.6621   -1.0239    0.9784 H         1 <0>         0.1447
     26 H9          0.9765    0.3396    1.9208 H         1 <0>         0.1546
     27 H10         1.5229   -1.0069   -1.0887 H         1 <0>         0.4067
     28 H11        -2.0999    1.6282   -3.8815 H         1 <0>         0.2049
     29 H12         2.4450   -1.5910   -2.6169 H         1 <0>         0.3987
     30 H13         2.5804   -1.6170   -4.2913 H         1 <0>         0.4084
@<TRIPOS>BOND
     1    1    2 1
     2    1   18 1
     3    1   19 1
     4    1   20 1
     5    2    8 1
     6    2    3 1
     7    2    9 1
     8    3    4 1
     9    3   21 1
    10    3   22 1
    11    4    5 1
    12    4   23 1
    13    4   24 1
    14    5    6 2
    15    5    7 2
    16    5    8 1
    17    8   25 1
    18    8   26 1
    19    9   10 1
    20    9   27 1
    21   10   15 ar
    22   10   11 ar
    23   11   12 ar
    24   11   17 1
    25   12   13 ar
    26   12   16 1
    27   13   14 ar
    28   14   15 ar
    29   14   28 1
    30   17   29 1
    31   17   30 1
@<TRIPOS>MOLECULE
ZINC04181707
   46    48     0     0     0
SMALL
USER_CHARGES

@<TRIPOS>ATOM
      1 C1          1.6963    1.1971    1.3733 C.3       1 <0>        -0.1480
      2 C2          1.4960   -0.3153    1.2575 C.3       1 <0>        -0.0851
      3 H1          2.2833   -0.7392    0.6341 H         1 <0>         0.0672
      4 C3          0.1332   -0.6020    0.6228 C.3       1 <0>        -0.1364
      5 C4         -0.0492   -2.1160    0.4767 C.3       1 <0>         0.1447
      6 N1          0.1494   -2.7451    1.7895 N.pl3     1 <0>        -0.6778
      7 C5          1.3881   -2.4635    2.5278 C.3       1 <0>         0.1744
      8 H2          2.2380   -2.8816    1.9884 H         1 <0>         0.0598
      9 C6          1.5540   -0.9455    2.6509 C.3       1 <0>        -0.1301
     10 C7          1.3076   -3.0884    3.9220 C.3       1 <0>        -0.1653
     11 C8         -0.8133   -3.5875    2.3214 C.ar      1 <0>         0.2577
     12 C9         -0.7684   -4.9527    2.0656 C.ar      1 <0>        -0.1469
     13 C10        -1.7299   -5.7862    2.5987 C.ar      1 <0>        -0.0395
     14 C11        -2.7472   -5.2738    3.3921 C.ar      1 <0>        -0.0686
     15 C12        -2.8138   -3.9367    3.6579 C.ar      1 <0>         0.0734
     16 C13        -1.8443   -3.0675    3.1323 C.ar      1 <0>        -0.0857
     17 C14        -1.9037   -1.6802    3.4093 C.2       1 <0>         0.0583
     18 C15        -2.0674   -1.2400    4.7144 C.2       1 <0>        -0.2396
     19 C16        -1.9615   -2.1619    5.8555 C.2       1 <0>         0.4935
     20 O1         -1.6996   -3.4717    5.6627 O.3       1 <0>        -0.6213
     21 N2         -2.1283   -1.6778    7.0744 N.2       1 <0>        -0.6578
     22 C17        -2.3871   -0.3911    7.2947 C.2       1 <0>         0.6680
     23 O2         -2.5276   -0.0211    8.4468 O.2       1 <0>        -0.5706
     24 N3         -2.5011    0.5208    6.3180 N.am      1 <0>        -0.6948
     25 C18        -2.3497    0.1760    5.0212 C.2       1 <0>         0.5666
     26 O3         -2.4479    1.0039    4.1349 O.2       1 <0>        -0.5294
     27 N4         -3.7689   -6.1854    3.9544 N.pl3     1 <0>         0.0450
     28 O4         -3.7152   -7.3706    3.7220 O.2       1 <0>        -0.1801
     29 O5         -4.6572   -5.7447    4.6461 O.3       1 <0>        -0.1623
     30 H3          2.6671    1.4015    1.8249 H         1 <0>         0.0522
     31 H4          1.6554    1.6460    0.3809 H         1 <0>         0.0521
     32 H5          0.9091    1.6212    1.9967 H         1 <0>         0.0566
     33 H6         -0.6559   -0.2001    1.2584 H         1 <0>         0.0684
     34 H7          0.0837   -0.1331   -0.3599 H         1 <0>         0.0688
     35 H8         -1.0559   -2.3298    0.1176 H         1 <0>         0.0701
     36 H9          0.6835   -2.5058   -0.2299 H         1 <0>         0.0548
     37 H10         2.5160   -0.7212    3.1119 H         1 <0>         0.0675
     38 H11         0.7514   -0.5404    3.2672 H         1 <0>         0.0670
     39 H12         1.1779   -4.1667    3.8299 H         1 <0>         0.0598
     40 H13         2.2273   -2.8783    4.4679 H         1 <0>         0.0626
     41 H14         0.4602   -2.6653    4.4614 H         1 <0>         0.0750
     42 H15         0.0188   -5.3611    1.4492 H         1 <0>         0.1411
     43 H16        -1.6910   -6.8465    2.3967 H         1 <0>         0.1459
     44 H17        -3.6095   -3.5479    4.2760 H         1 <0>         0.1461
     45 H18        -1.8216   -0.9648    2.6044 H         1 <0>         0.1406
     46 H19        -2.6911    1.4440    6.5471 H         1 <0>         0.4020
@<TRIPOS>BOND
     1    1    2 1
     2    1   30 1
     3    1   31 1
     4    1   32 1
     5    2    3 1
     6    2    9 1
     7    2    4 1
     8    4    5 1
     9    4   33 1
    10    4   34 1
    11    5    6 1
    12    5   35 1
    13    5   36 1
    14    6    7 1
    15    6   11 1
    16    7    8 1
    17    7    9 1
    18    7   10 1
    19    9   37 1
    20    9   38 1
    21   10   39 1
    22   10   40 1
    23   10   41 1
    24   11   16 ar
    25   11   12 ar
    26   12   13 ar
    27   12   42 1
    28   13   14 ar
    29   13   43 1
    30   14   15 ar
    31   14   27 1
    32   15   16 ar
    33   15   44 1
    34   16   17 1
    35   17   18 2
    36   17   45 1
    37   18   25 1
    38   18   19 1
    39   19   20 1
    40   19   21 2
    41   21   22 1
    42   22   23 2
    43   22   24 am
    44   24   25 am
    45   24   46 1
    46   25   26 2
    47   27   28 2
    48   27   29 1
@<TRIPOS>MOLECULE
ZINC38784114
   44    48     0     0     0
SMALL
USER_CHARGES

@<TRIPOS>ATOM
      1 C1          2.8138    0.6904   -0.2536 C.3       1 <0>        -0.0971
      2 C2          2.0025   -0.5777   -0.1844 C.ar      1 <0>         0.1993
      3 C3          1.4286   -1.1068   -1.3300 C.ar      1 <0>        -0.3392
      4 C4          0.6907   -2.2749   -1.2225 C.ar      1 <0>         0.1881
      5 N1          0.5567   -2.8468   -0.0372 N.ar      1 <0>        -0.6257
      6 C5          1.1182   -2.3153    1.0386 C.ar      1 <0>         0.5989
      7 N2          1.8340   -1.2023    0.9692 N.ar      1 <0>        -0.5495
      8 N3          0.9573   -2.9398    2.2632 N.2       1 <0>        -1.0479
      9 S1          0.0713   -4.3347    2.3712 S.o2      1 <0>         2.6357
     10 O1         -1.2715   -3.9879    2.0620 O.2       1 <0>        -1.0114
     11 O2          0.7873   -5.3275    1.6493 O.2       1 <0>        -1.0114
     12 C6          0.0866   -4.8320    4.0615 C.ar      1 <0>        -0.6020
     13 C7          1.0864   -5.6668    4.5261 C.ar      1 <0>        -0.0108
     14 C8          1.1009   -6.0587    5.8504 C.ar      1 <0>        -0.1171
     15 C9          0.1102   -5.6133    6.7157 C.ar      1 <0>         0.1176
     16 C10        -0.8922   -4.7747    6.2461 C.ar      1 <0>        -0.1169
     17 C11        -0.8981   -4.3822    4.9219 C.ar      1 <0>        -0.0109
     18 N4          0.1218   -6.0093    8.0588 N.am      1 <0>        -0.4651
     19 C12        -0.5329   -7.1452    8.4244 C.2       1 <0>         0.2131
     20 C13        -0.5609   -7.5832    9.7009 C.2       1 <0>        -0.2468
     21 C14         0.0995   -6.8626   10.7081 C.2       1 <0>         0.3148
     22 C15         0.7858   -5.6835   10.3623 C.2       1 <0>        -0.2797
     23 C16         0.7870   -5.2592    8.9635 C.2       1 <0>         0.5627
     24 O3          1.3731   -4.2473    8.6215 O.2       1 <0>        -0.4797
     25 C17         1.4476   -4.9590   11.3699 C.2       1 <0>         0.2801
     26 N5          1.4150   -5.3912   12.6089 N.2       1 <0>        -0.4737
     27 C18         0.7646   -6.5135   12.9528 C.2       1 <0>         0.4649
     28 N6          0.1031   -7.2606   12.0176 N.pl3     1 <0>        -0.3399
     29 N7         -0.4571   -8.3473   12.7007 N.2       1 <0>        -0.3267
     30 C19        -0.1262   -8.2192   13.9620 C.2       1 <0>         0.2538
     31 N8          0.6045   -7.1225   14.1213 N.2       1 <0>        -0.5240
     32 H1          3.8580    0.4437   -0.4455 H         1 <0>         0.0736
     33 H2          2.4354    1.3203   -1.0587 H         1 <0>         0.0692
     34 H3          2.7347    1.2245    0.6933 H         1 <0>         0.0736
     35 H4          1.5536   -0.6191   -2.2854 H         1 <0>         0.1228
     36 H5          0.2303   -2.7128   -2.0958 H         1 <0>         0.1446
     37 H6          1.8565   -6.0128    3.8527 H         1 <0>         0.1499
     38 H7          1.8816   -6.7112    6.2125 H         1 <0>         0.1349
     39 H8         -1.6642   -4.4269    6.9165 H         1 <0>         0.1350
     40 H9         -1.6751   -3.7268    4.5570 H         1 <0>         0.1500
     41 H10        -1.0486   -7.7160    7.6664 H         1 <0>         0.1833
     42 H11        -1.0929   -8.4901    9.9477 H         1 <0>         0.1709
     43 H12         1.9803   -4.0518   11.1253 H         1 <0>         0.2031
     44 H13        -0.4063   -8.9008   14.7515 H         1 <0>         0.2356
@<TRIPOS>BOND
     1    1    2 1
     2    1   32 1
     3    1   33 1
     4    1   34 1
     5    2    7 ar
     6    2    3 ar
     7    3    4 ar
     8    3   35 1
     9    4    5 ar
    10    4   36 1
    11    5    6 ar
    12    6    7 ar
    13    6    8 1
    14    8    9 1
    15    9   10 2
    16    9   11 2
    17    9   12 1
    18   12   17 ar
    19   12   13 ar
    20   13   14 ar
    21   13   37 1
    22   14   15 ar
    23   14   38 1
    24   15   16 ar
    25   15   18 1
    26   16   17 ar
    27   16   39 1
    28   17   40 1
    29   18   23 am
    30   18   19 1
    31   19   20 2
    32   19   41 1
    33   20   21 1
    34   20   42 1
    35   21   28 1
    36   21   22 2
    37   22   23 1
    38   22   25 1
    39   23   24 2
    40   25   26 2
    41   25   43 1
    42   26   27 1
    43   27   31 2
    44   27   28 1
    45   28   29 1
    46   29   30 2
    47   30   31 1
    48   30   44 1
@<TRIPOS>MOLECULE
ZINC48798916
   29    30     0     0     0
SMALL
USER_CHARGES

@<TRIPOS>ATOM
      1 C1         -0.0173    1.4248    0.0099 C.3       1 <0>         0.0192
      2 O1          0.0021   -0.0041    0.0020 O.3       1 <0>        -0.2719
      3 C2         -1.2003   -0.6375    0.0101 C.ar      1 <0>         0.2321
      4 C3         -2.3748    0.1012    0.0195 C.ar      1 <0>        -0.1781
      5 C4         -3.5956   -0.5449    0.0272 C.ar      1 <0>         0.0209
      6 C5         -3.6478   -1.9268    0.0256 C.ar      1 <0>        -0.1203
      7 C6         -2.4790   -2.6650    0.0167 C.ar      1 <0>         0.0075
      8 C7         -1.2554   -2.0235    0.0032 C.ar      1 <0>        -0.6087
      9 S1          0.2338   -2.9651   -0.0155 S.o2      1 <0>         2.6088
     10 O2          1.0652   -2.4304    1.0053 O.2       1 <0>        -1.0077
     11 O3         -0.1508   -4.3327   -0.0464 O.2       1 <0>        -1.0231
     12 N1          0.9917   -2.6540   -1.4546 N.2       1 <0>        -1.0471
     13 C8          2.2129   -3.2712   -1.7503 C.2       1 <0>         0.3767
     14 C9          2.9635   -3.0948   -2.9239 C.2       1 <0>        -0.2789
     15 C10         4.0735   -3.8614   -2.8257 C.2       1 <0>         0.0447
     16 N2          4.0315   -4.5002   -1.6375 N.pl3     1 <0>        -0.5022
     17 H1          4.6988   -5.1172   -1.2985 H         1 <0>         0.4222
     18 N3          2.8592   -4.1114   -0.9768 N.2       1 <0>        -0.4221
     19 N4         -4.8488    0.2424    0.0377 N.pl3     1 <0>         0.0333
     20 O4         -4.8037    1.4505    0.0395 O.2       1 <0>        -0.1601
     21 O5         -5.9176   -0.3227    0.0445 O.3       1 <0>        -0.1534
     22 H2          1.0053    1.8021    0.0021 H         1 <0>         0.1117
     23 H3         -0.5445    1.7859   -0.8732 H         1 <0>         0.0618
     24 H4         -0.5275    1.7763    0.9067 H         1 <0>         0.0587
     25 H5         -2.3345    1.1804    0.0211 H         1 <0>         0.1606
     26 H6         -4.6033   -2.4301    0.0316 H         1 <0>         0.1582
     27 H7         -2.5224   -3.7442    0.0158 H         1 <0>         0.1691
     28 H8          2.7009   -2.4601   -3.7574 H         1 <0>         0.1309
     29 H9          4.8545   -3.9473   -3.5666 H         1 <0>         0.1572
@<TRIPOS>BOND
     1    1    2 1
     2    1   22 1
     3    1   23 1
     4    1   24 1
     5    2    3 1
     6    3    8 ar
     7    3    4 ar
     8    4    5 ar
     9    4   25 1
    10    5    6 ar
    11    5   19 1
    12    6    7 ar
    13    6   26 1
    14    7    8 ar
    15    7   27 1
    16    8    9 1
    17    9   10 2
    18    9   11 2
    19    9   12 1
    20   12   13 1
    21   13   18 2
    22   13   14 1
    23   14   15 2
    24   14   28 1
    25   15   16 1
    26   15   29 1
    27   16   17 1
    28   16   18 1
    29   19   20 2
    30   19   21 1
@<TRIPOS>MOLECULE
ZINC08914478
   38    40     0     0     0
SMALL
USER_CHARGES

@<TRIPOS>ATOM
      1 C1          0.6595    1.4279    0.1555 C.3       1 <0>        -0.1100
      2 C2          0.4020   -0.0560    0.1036 C.ar      1 <0>        -0.0942
      3 C3          1.0393   -0.8986    0.9962 C.ar      1 <0>        -0.1111
      4 C4          0.8050   -2.2588    0.9514 C.ar      1 <0>        -0.0862
      5 C5         -0.0714   -2.7804    0.0090 C.ar      1 <0>         0.1465
      6 C6         -0.7095   -1.9321   -0.8856 C.ar      1 <0>        -0.1008
      7 C7         -0.4751   -0.5717   -0.8324 C.ar      1 <0>        -0.0855
      8 C8         -1.1722    0.3506   -1.7991 C.3       1 <0>        -0.1091
      9 N1         -0.3108   -4.1602   -0.0392 N.am      1 <0>        -0.5246
     10 C9         -0.0651   -4.8363   -1.1817 C.2       1 <0>         0.5620
     11 O1          0.3609   -4.2666   -2.1697 O.2       1 <0>        -0.5056
     12 C10        -0.3282   -6.2841   -1.1940 C.2       1 <0>        -0.2057
     13 C11        -0.1016   -7.0546   -2.3294 C.2       1 <0>         0.0179
     14 C12        -0.1814   -8.4542   -2.2553 C.2       1 <0>         0.1020
     15 C13        -0.7436   -9.2935   -3.2061 C.2       1 <0>        -0.1863
     16 C14        -0.6011  -10.5967   -2.7188 C.2       1 <0>        -0.0931
     17 C15         0.0258  -10.5121   -1.5204 C.2       1 <0>         0.0200
     18 O2          0.2807   -9.2266   -1.2481 O.3       1 <0>        -0.0934
     19 N2          0.3775  -11.6591   -0.6531 N.pl3     1 <0>         0.0734
     20 O3          0.1037  -12.7847   -0.9989 O.2       1 <0>        -0.1423
     21 O4          0.9386  -11.4701    0.4010 O.3       1 <0>        -0.1273
     22 C16        -0.8431   -6.8815    0.0540 C.2       1 <0>         0.5285
     23 N3         -1.0385   -6.0787    1.1132 N.2       1 <0>        -0.6552
     24 C17        -0.7814   -4.7956    1.0676 C.2       1 <0>         0.6338
     25 O5         -1.0003   -4.0630    2.1771 O.3       1 <0>        -0.6306
     26 O6         -1.0857   -8.0750    0.1216 O.2       1 <0>        -0.5214
     27 H1         -0.0537    1.8970    0.8332 H         1 <0>         0.0676
     28 H2          1.6733    1.6085    0.5130 H         1 <0>         0.0634
     29 H3          0.5453    1.8516   -0.8423 H         1 <0>         0.0654
     30 H4          1.7211   -0.4925    1.7287 H         1 <0>         0.1244
     31 H5          1.3032   -2.9164    1.6485 H         1 <0>         0.1257
     32 H6         -1.3914   -2.3348   -1.6199 H         1 <0>         0.1193
     33 H7         -0.5649    0.4617   -2.6975 H         1 <0>         0.0677
     34 H8         -2.1424   -0.0686   -2.0659 H         1 <0>         0.0633
     35 H9         -1.3135    1.3258   -1.3332 H         1 <0>         0.0671
     36 H10         0.1357   -6.5762   -3.2681 H         1 <0>         0.1781
     37 H11        -1.2015   -8.9987   -4.1387 H         1 <0>         0.1784
     38 H12        -0.9301  -11.5023   -3.2068 H         1 <0>         0.1782
@<TRIPOS>BOND
     1    1    2 1
     2    1   27 1
     3    1   28 1
     4    1   29 1
     5    2    7 ar
     6    2    3 ar
     7    3    4 ar
     8    3   30 1
     9    4    5 ar
    10    4   31 1
    11    5    6 ar
    12    5    9 1
    13    6    7 ar
    14    6   32 1
    15    7    8 1
    16    8   33 1
    17    8   34 1
    18    8   35 1
    19    9   24 1
    20    9   10 am
    21   10   11 2
    22   10   12 1
    23   12   13 2
    24   12   22 1
    25   13   14 1
    26   13   36 1
    27   14   18 1
    28   14   15 2
    29   15   16 1
    30   15   37 1
    31   16   17 2
    32   16   38 1
    33   17   18 1
    34   17   19 1
    35   19   20 2
    36   19   21 1
    37   22   23 1
    38   22   26 2
    39   23   24 2
    40   24   25 1
@<TRIPOS>MOLECULE
ZINC65319030
   50    53     0     0     0
SMALL
USER_CHARGES

@<TRIPOS>ATOM
      1 C1         -0.8034    1.4411    0.0961 C.3       1 <0>        -0.1704
      2 C2         -0.5954   -0.0512    0.0676 C.ar      1 <0>         0.0607
      3 C3         -0.7441   -0.7453   -1.1198 C.ar      1 <0>        -0.1543
      4 C4         -0.5552   -2.1120   -1.1514 C.ar      1 <0>        -0.0194
      5 C5         -0.2138   -2.7927    0.0154 C.ar      1 <0>        -0.0854
      6 C6         -0.0650   -2.0889    1.2082 C.ar      1 <0>         0.0235
      7 C7         -0.2512   -0.7211    1.2275 C.ar      1 <0>        -0.6319
      8 S1         -0.0569    0.1717    2.7341 S.o2      1 <0>         2.6077
      9 O1         -1.2057    0.9973    2.8679 O.2       1 <0>        -1.0170
     10 O2          0.3188   -0.7772    3.7229 O.2       1 <0>        -1.0211
     11 N1          1.2359    1.1878    2.5378 N.2       1 <0>        -1.0741
     12 C8          1.6271    2.0253    3.5784 C.ar      1 <0>         0.3106
     13 C9          0.9341    2.0033    4.7852 C.ar      1 <0>        -0.2706
     14 C10         1.3183    2.8303    5.8164 C.ar      1 <0>        -0.0070
     15 C11         2.4060    3.6928    5.6505 C.ar      1 <0>        -0.1610
     16 C12         3.0998    3.7123    4.4369 C.ar      1 <0>        -0.0245
     17 C13         2.7138    2.8787    3.4118 C.ar      1 <0>        -0.1836
     18 C14         2.8081    4.5548    6.7210 C.1       1 <0>         0.2855
     19 N2          3.1272    5.2386    7.5702 N.1       1 <0>        -0.4843
     20 C15        -0.0099   -4.2629   -0.0124 C.2       1 <0>         0.3072
     21 N3         -0.1195   -5.0458   -1.0959 N.2       1 <0>        -0.4660
     22 C16         0.1237   -6.2915   -0.7750 C.2       1 <0>         0.2495
     23 O3          0.3994   -6.3425    0.5396 O.3       1 <0>        -0.0927
     24 N4          0.3126   -5.0084    1.0173 N.2       1 <0>        -0.3102
     25 C17         0.0984   -7.4481   -1.7027 C.2       1 <0>         0.6147
     26 O4         -0.0287   -7.2661   -2.8971 O.2       1 <0>        -0.4730
     27 N5          0.2165   -8.7012   -1.2207 N.am      1 <0>        -0.5978
     28 C18         0.2171   -8.9586    0.2281 C.3       1 <0>         0.0544
     29 C19        -0.8061  -10.0612    0.5237 C.3       1 <0>         0.0496
     30 O5         -0.5446  -11.1846   -0.3208 O.3       1 <0>        -0.3759
     31 C20        -0.6815  -10.9114   -1.7174 C.3       1 <0>         0.0466
     32 C21         0.3424   -9.8529   -2.1279 C.3       1 <0>         0.0790
     33 H1          0.1416    1.9436   -0.1100 H         1 <0>         0.0982
     34 H2         -1.5361    1.7203   -0.6611 H         1 <0>         0.0744
     35 H3         -1.1662    1.7387    1.0799 H         1 <0>         0.1136
     36 H4         -1.0087   -0.2167   -2.0236 H         1 <0>         0.1396
     37 H5         -0.6722   -2.6530   -2.0787 H         1 <0>         0.1424
     38 H6          0.1995   -2.6117    2.1154 H         1 <0>         0.1487
     39 H7          0.0938    1.3370    4.9126 H         1 <0>         0.1062
     40 H8          0.7799    2.8130    6.7525 H         1 <0>         0.1128
     41 H9          3.9405    4.3774    4.3054 H         1 <0>         0.1155
     42 H10         3.2523    2.8898    2.4757 H         1 <0>         0.1237
     43 H11         1.2087   -9.2840    0.5427 H         1 <0>         0.0940
     44 H12        -0.0582   -8.0494    0.7626 H         1 <0>         0.1132
     45 H13        -0.7240  -10.3636    1.5677 H         1 <0>         0.1156
     46 H14        -1.8112   -9.6864    0.3304 H         1 <0>         0.0600
     47 H15        -0.5099  -11.8255   -2.2858 H         1 <0>         0.1140
     48 H16        -1.6862  -10.5398   -1.9189 H         1 <0>         0.0602
     49 H17         0.1500   -9.5357   -3.1528 H         1 <0>         0.1096
     50 H18         1.3468  -10.2699   -2.0545 H         1 <0>         0.0890
@<TRIPOS>BOND
     1    1    2 1
     2    1   33 1
     3    1   34 1
     4    1   35 1
     5    2    7 ar
     6    2    3 ar
     7    3    4 ar
     8    3   36 1
     9    4    5 ar
    10    4   37 1
    11    5    6 ar
    12    5   20 1
    13    6    7 ar
    14    6   38 1
    15    7    8 1
    16    8    9 2
    17    8   10 2
    18    8   11 1
    19   11   12 1
    20   12   17 ar
    21   12   13 ar
    22   13   14 ar
    23   13   39 1
    24   14   15 ar
    25   14   40 1
    26   15   16 ar
    27   15   18 1
    28   16   17 ar
    29   16   41 1
    30   17   42 1
    31   18   19 3
    32   20   24 2
    33   20   21 1
    34   21   22 2
    35   22   23 1
    36   22   25 1
    37   23   24 1
    38   25   26 2
    39   25   27 am
    40   27   32 1
    41   27   28 1
    42   28   29 1
    43   28   43 1
    44   28   44 1
    45   29   30 1
    46   29   45 1
    47   29   46 1
    48   30   31 1
    49   31   32 1
    50   31   47 1
    51   31   48 1
    52   32   49 1
    53   32   50 1
@<TRIPOS>MOLECULE
ZINC31852313
   38    39     0     0     0
SMALL
USER_CHARGES
1-[(2S)-2-(4-bromophenyl)sulfanylpropanoyl]piperidine-4-carboxylic acid
@<TRIPOS>ATOM
      1 C1          0.1069    1.0683    0.1011 C.3       1 <0>        -0.1333
      2 C2         -0.4355    1.5860    1.4348 C.3       1 <0>        -0.1277
      3 H1         -1.3171    0.9622    1.6438 H         1 <0>         0.1217
      4 C3          0.5265    1.2322    2.5396 C.2       1 <0>         0.5057
      5 O1          1.3005    2.0660    2.9599 O.2       1 <0>        -0.5229
      6 N1          0.5266   -0.0108    3.0606 N.am      1 <0>        -0.6000
      7 C4         -0.4093   -1.0298    2.5662 C.3       1 <0>         0.0988
      8 C5         -1.1841   -1.6092    3.7484 C.3       1 <0>        -0.1120
      9 C6         -0.1976   -2.1193    4.8013 C.3       1 <0>        -0.1284
     10 C7          0.6588   -0.9559    5.3065 C.3       1 <0>        -0.1089
     11 C8          1.4584   -0.3708    4.1381 C.3       1 <0>         0.1103
     12 C9         -0.9599   -2.7193    5.9546 C.2       1 <0>         0.4639
     13 O2         -0.8314   -2.2633    7.0661 O.co2     1 <0>        -0.6373
     14 O3         -1.7816   -3.7602    5.7470 O.co2     1 <0>        -0.7709
     15 S1         -0.6246    3.3882    1.3519 S.3       1 <0>        -0.0255
     16 C10        -1.4837    3.7953    2.8355 C.ar      1 <0>        -0.0696
     17 C11        -1.9552    2.7862    3.6664 C.ar      1 <0>        -0.1205
     18 C12        -2.6234    3.1086    4.8310 C.ar      1 <0>        -0.0631
     19 C13        -2.8337    4.4348    5.1653 C.ar      1 <0>        -0.0975
     20 C14        -2.3700    5.4419    4.3374 C.ar      1 <0>        -0.0721
     21 C15        -1.6961    5.1262    3.1743 C.ar      1 <0>        -0.0985
     22 Br1        -3.7562    4.8717    6.7571 Br        1 <0>        -0.0509
     23 H2         -0.5953    1.3265   -0.7053 H         1 <0>         0.0810
     24 H3          0.2217   -0.0245    0.1514 H         1 <0>         0.0816
     25 H4          1.0842    1.5307   -0.1016 H         1 <0>         0.0719
     26 H5         -1.1096   -0.5695    1.8536 H         1 <0>         0.0800
     27 H6          0.1526   -1.8304    2.0629 H         1 <0>         0.0752
     28 H7         -1.8198   -0.8270    4.1889 H         1 <0>         0.0588
     29 H8         -1.8141   -2.4415    3.4014 H         1 <0>         0.0863
     30 H9          0.4475   -2.8953    4.3635 H         1 <0>         0.0709
     31 H10         0.0071   -0.1788    5.7324 H         1 <0>         0.0650
     32 H11         1.3506   -1.3190    6.0808 H         1 <0>         0.0762
     33 H12         2.1770   -1.1166    3.7674 H         1 <0>         0.0657
     34 H13         2.0002    0.5273    4.4696 H         1 <0>         0.0893
     35 H14        -1.7952    1.7509    3.4038 H         1 <0>         0.1256
     36 H15        -2.9862    2.3248    5.4794 H         1 <0>         0.1385
     37 H16        -2.5352    6.4761    4.6014 H         1 <0>         0.1367
     38 H17        -1.3342    5.9128    2.5287 H         1 <0>         0.1359
@<TRIPOS>BOND
     1    1    2 1
     2    1   23 1
     3    1   24 1
     4    1   25 1
     5    2    3 1
     6    2    4 1
     7    2   15 1
     8    4    5 2
     9    4    6 am
    10    6   11 1
    11    6    7 1
    12    7    8 1
    13    7   26 1
    14    7   27 1
    15    8    9 1
    16    8   28 1
    17    8   29 1
    18    9   10 1
    19    9   12 1
    20    9   30 1
    21   10   11 1
    22   10   31 1
    23   10   32 1
    24   11   33 1
    25   11   34 1
    26   12   13 2
    27   12   14 1
    28   15   16 1
    29   16   21 ar
    30   16   17 ar
    31   17   18 ar
    32   17   35 1
    33   18   19 ar
    34   18   36 1
    35   19   20 ar
    36   19   22 1
    37   20   21 ar
    38   20   37 1
    39   21   38 1
@<TRIPOS>MOLECULE
ZINC37827671
   42    42     0     0     0
SMALL
USER_CHARGES

@<TRIPOS>ATOM
      1 C1          1.5874    1.7589    1.1973 C.3       1 <0>        -0.1518
      2 C2          1.9643    0.2903    0.9923 C.3       1 <0>        -0.0898
      3 C3          0.7521   -0.5939    1.2920 C.3       1 <0>        -0.1162
      4 C4         -0.3941   -0.2250    0.3480 C.3       1 <0>        -0.0993
      5 C5          0.0487   -0.4405   -1.1006 C.3       1 <0>        -0.1514
      6 C6          1.1290   -2.0625    1.0870 C.3       1 <0>        -0.1065
      7 C7          2.1925   -2.4517    2.0812 C.2       1 <0>         0.5031
      8 O1          2.5560   -1.6573    2.9225 O.2       1 <0>        -0.4740
      9 N1          2.7398   -3.6825    2.0355 N.am      1 <0>        -0.6240
     10 C8          2.3007   -4.6421    1.0193 C.3       1 <0>         0.1074
     11 C9          3.1659   -4.4901   -0.2333 C.3       1 <0>        -0.1703
     12 C10         3.7737   -4.0608    3.0020 C.3       1 <0>         0.1992
     13 C11         3.1253   -4.6693    4.2188 C.2       1 <0>        -0.1529
     14 C12         2.8279   -5.9677    4.4677 C.2       1 <0>        -0.1536
     15 C13         2.2262   -6.2999    5.6674 C.2       1 <0>        -0.1447
     16 C14         1.9517   -5.3155    6.5596 C.2       1 <0>        -0.1384
     17 S1          2.5572   -3.8673    5.7091 S.3       1 <0>         0.1578
     18 Cl1         1.2104   -5.4342    8.1248 Cl        1 <0>         0.0048
     19 C15         0.3159   -0.3816    2.7188 C.2       1 <0>         0.5153
     20 O2          0.9864    0.3118    3.4644 O.co2     1 <0>        -0.6689
     21 O3         -0.7074   -0.9034    3.1274 O.co2     1 <0>        -0.7146
     22 H1          1.2719    1.9125    2.2293 H         1 <0>         0.0877
     23 H2          2.4509    2.3889    0.9838 H         1 <0>         0.0284
     24 H3          0.7708    2.0218    0.5248 H         1 <0>         0.0340
     25 H4          2.2797    0.1368   -0.0397 H         1 <0>         0.0278
     26 H5          2.7808    0.0275    1.6648 H         1 <0>         0.0724
     27 H6         -1.2576   -0.8549    0.5615 H         1 <0>         0.0604
     28 H7         -0.6626    0.8213    0.4941 H         1 <0>         0.0577
     29 H8          0.9123    0.1895   -1.3140 H         1 <0>         0.0526
     30 H9          0.3172   -1.4867   -1.2466 H         1 <0>         0.0476
     31 H10        -0.7678   -0.1776   -1.7730 H         1 <0>         0.0422
     32 H11         0.2482   -2.6876    1.2338 H         1 <0>         0.0861
     33 H12         1.5091   -2.2022    0.0750 H         1 <0>         0.0750
     34 H13         2.4003   -5.6551    1.4090 H         1 <0>         0.0731
     35 H14         1.2578   -4.4512    0.7659 H         1 <0>         0.0800
     36 H15         4.2088   -4.6809    0.0201 H         1 <0>         0.0559
     37 H16         2.8392   -5.2040   -0.9894 H         1 <0>         0.0636
     38 H17         3.0662   -3.4770   -0.6231 H         1 <0>         0.0598
     39 H18         4.4474   -4.7873    2.5477 H         1 <0>         0.0964
     40 H19         4.3381   -3.1757    3.2954 H         1 <0>         0.0982
     41 H20         3.0571   -6.7316    3.7395 H         1 <0>         0.1351
     42 H21         1.9783   -7.3271    5.8907 H         1 <0>         0.1348
@<TRIPOS>BOND
     1    1    2 1
     2    1   22 1
     3    1   23 1
     4    1   24 1
     5    2    3 1
     6    2   25 1
     7    2   26 1
     8    3    4 1
     9    3    6 1
    10    3   19 1
    11    4    5 1
    12    4   27 1
    13    4   28 1
    14    5   29 1
    15    5   30 1
    16    5   31 1
    17    6    7 1
    18    6   32 1
    19    6   33 1
    20    7    8 2
    21    7    9 am
    22    9   10 1
    23    9   12 1
    24   10   11 1
    25   10   34 1
    26   10   35 1
    27   11   36 1
    28   11   37 1
    29   11   38 1
    30   12   13 1
    31   12   39 1
    32   12   40 1
    33   13   17 1
    34   13   14 2
    35   14   15 1
    36   14   41 1
    37   15   16 2
    38   15   42 1
    39   16   17 1
    40   16   18 1
    41   19   20 2
    42   19   21 1
@<TRIPOS>MOLECULE
ZINC42279746
   31    31     0     0     0
SMALL
USER_CHARGES

@<TRIPOS>ATOM
      1 C1         -0.0184    1.5028    0.0103 C.3       1 <0>        -0.1246
      2 C2          0.0021   -0.0041    0.0020 C.ar      1 <0>        -0.0412
      3 C3          0.0058   -0.6873   -1.1982 C.ar      1 <0>        -0.1355
      4 C4          0.0251   -2.0766   -1.2050 C.ar      1 <0>        -0.0863
      5 C5          0.0406   -2.7743   -0.0030 C.ar      1 <0>        -0.0755
      6 C6          0.0368   -2.0854    1.1934 C.ar      1 <0>        -0.0705
      7 C7          0.0229   -0.7015    1.1968 C.ar      1 <0>        -0.1091
      8 Br1         0.0250    0.2382    2.8378 Br        1 <0>        -0.0630
      9 C8          0.0611   -4.2811   -0.0058 C.3       1 <0>        -0.1140
     10 S1          0.0293   -2.9520   -2.7341 S.3       1 <0>        -0.0002
     11 C9          0.0045   -1.6427   -3.9894 C.3       1 <0>        -0.0893
     12 C10         0.0060   -2.2634   -5.3627 C.2       1 <0>         0.5062
     13 O1         -0.0107   -1.4766   -6.4586 O.3       1 <0>        -0.7073
     14 N1          0.0232   -3.5473   -5.4904 N.2       1 <0>        -1.0602
     15 S2          0.0248   -4.2293   -6.9994 S.o2      1 <0>         2.5738
     16 O2         -1.2183   -3.8466   -7.5717 O.2       1 <0>        -1.0030
     17 O3          1.2507   -3.8122   -7.5846 O.2       1 <0>        -1.0030
     18 C11         0.0512   -6.0186   -6.7023 C.3       1 <0>        -0.6497
     19 H1          1.0042    1.8801    0.0026 H         1 <0>         0.0761
     20 H2         -0.5455    1.8639   -0.8728 H         1 <0>         0.0714
     21 H3         -0.5286    1.8543    0.9071 H         1 <0>         0.0750
     22 H4         -0.0067   -0.1423   -2.1305 H         1 <0>         0.1319
     23 H5          0.0485   -2.6270    2.1277 H         1 <0>         0.1309
     24 H6          1.0936   -4.6305   -0.0116 H         1 <0>         0.0749
     25 H7         -0.4433   -4.6530    0.8861 H         1 <0>         0.0667
     26 H8         -0.4523   -4.6499   -0.8938 H         1 <0>         0.0789
     27 H9         -0.8934   -1.0373   -3.8653 H         1 <0>         0.1023
     28 H10         0.8864   -1.0125   -3.8746 H         1 <0>         0.1026
     29 H11        -0.8319   -6.3052   -6.1312 H         1 <0>         0.1179
     30 H12         0.0536   -6.5454   -7.6565 H         1 <0>         0.1058
     31 H13         0.9479   -6.2804   -6.1405 H         1 <0>         0.1180
@<TRIPOS>BOND
     1    1    2 1
     2    1   19 1
     3    1   20 1
     4    1   21 1
     5    2    7 ar
     6    2    3 ar
     7    3    4 ar
     8    3   22 1
     9    4    5 ar
    10    4   10 1
    11    5    6 ar
    12    5    9 1
    13    6    7 ar
    14    6   23 1
    15    7    8 1
    16    9   24 1
    17    9   25 1
    18    9   26 1
    19   10   11 1
    20   11   12 1
    21   11   27 1
    22   11   28 1
    23   12   13 1
    24   12   14 2
    25   14   15 1
    26   15   16 2
    27   15   17 2
    28   15   18 1
    29   18   29 1
    30   18   30 1
    31   18   31 1
@<TRIPOS>MOLECULE
ZINC61179329
   34    34     0     0     0
SMALL
USER_CHARGES

@<TRIPOS>ATOM
      1 C1         -0.0187    1.5258    0.0104 C.3       1 <0>        -0.1755
      2 C2          0.0021   -0.0041    0.0020 C.3       1 <0>         0.1008
      3 N1          0.6878   -0.4765   -1.2033 N.am      1 <0>        -0.5827
      4 C3          2.1353   -0.7012   -1.1821 C.3       1 <0>         0.1585
      5 H1          2.4635   -1.0486   -2.1617 H         1 <0>         0.1007
      6 C4          2.8496    0.6077   -0.8395 C.3       1 <0>        -0.1605
      7 C5          2.4721   -1.7571   -0.1273 C.3       1 <0>        -0.1981
      8 C6          1.8694   -3.0786   -0.5292 C.2       1 <0>         0.4870
      9 O1          1.2297   -3.1676   -1.5633 O.co2     1 <0>        -0.6748
     10 O2          2.0214   -4.0587    0.1799 O.co2     1 <0>        -0.7146
     11 C7         -0.0130   -0.7045   -2.3317 C.2       1 <0>         0.5587
     12 O3          0.5570   -1.0973   -3.3338 O.2       1 <0>        -0.5252
     13 C8         -1.4102   -0.4876   -2.3522 C.2       1 <0>        -0.1697
     14 C9         -2.1160   -0.7172   -3.4886 C.2       1 <0>        -0.0104
     15 C10        -3.5139   -0.5002   -3.5091 C.2       1 <0>        -0.1309
     16 C11        -4.4133   -0.6776   -4.5550 C.2       1 <0>        -0.1371
     17 C12        -5.7235   -0.3807   -4.2698 C.2       1 <0>        -0.1225
     18 C13        -6.0460    0.0531   -3.0241 C.2       1 <0>        -0.2570
     19 S1         -4.5828    0.0644   -2.1988 S.3       1 <0>         0.2388
     20 Br1        -7.7539    0.5280   -2.3659 Br        1 <0>         0.0295
     21 H2          1.0039    1.9031    0.0027 H         1 <0>         0.0651
     22 H3         -0.5459    1.8868   -0.8726 H         1 <0>         0.0542
     23 H4         -0.5289    1.8773    0.9072 H         1 <0>         0.0610
     24 H5          0.5293   -0.3651    0.8851 H         1 <0>         0.0791
     25 H6         -1.0205   -0.3814    0.0098 H         1 <0>         0.0717
     26 H7          2.6097    1.3600   -1.5909 H         1 <0>         0.0508
     27 H8          2.5214    0.9552    0.1401 H         1 <0>         0.0548
     28 H9          3.9266    0.4406   -0.8237 H         1 <0>         0.0599
     29 H10         3.5544   -1.8602   -0.0490 H         1 <0>         0.0646
     30 H11         2.0656   -1.4505    0.8365 H         1 <0>         0.0568
     31 H12        -1.9157   -0.1393   -1.4637 H         1 <0>         0.1225
     32 H13        -1.6105   -1.0655   -4.3771 H         1 <0>         0.1546
     33 H14        -4.1015   -1.0259   -5.5286 H         1 <0>         0.1518
     34 H15        -6.4868   -0.4905   -5.0259 H         1 <0>         0.1381
@<TRIPOS>BOND
     1    1    2 1
     2    1   21 1
     3    1   22 1
     4    1   23 1
     5    2    3 1
     6    2   24 1
     7    2   25 1
     8    3    4 1
     9    3   11 am
    10    4    5 1
    11    4    6 1
    12    4    7 1
    13    6   26 1
    14    6   27 1
    15    6   28 1
    16    7    8 1
    17    7   29 1
    18    7   30 1
    19    8    9 2
    20    8   10 1
    21   11   12 2
    22   11   13 1
    23   13   14 2
    24   13   31 1
    25   14   15 1
    26   14   32 1
    27   15   19 1
    28   15   16 2
    29   16   17 1
    30   16   33 1
    31   17   18 2
    32   17   34 1
    33   18   19 1
    34   18   20 1
@<TRIPOS>MOLECULE
ZINC67600524
   37    37     0     0     0
SMALL
USER_CHARGES

@<TRIPOS>ATOM
      1 C1         -2.2037    1.1903    2.0863 C.3       1 <0>        -0.1295
      2 C2         -2.1841   -0.3131    1.8030 C.3       1 <0>        -0.0937
      3 S1         -1.4462   -0.6117    0.1730 S.3       1 <0>        -0.2346
      4 C3         -1.3562   -2.4198    0.0566 C.3       1 <0>        -0.0120
      5 H1         -0.8417   -2.8151    0.9325 H         1 <0>         0.0978
      6 C4         -0.5873   -2.8118   -1.2067 C.3       1 <0>        -0.0661
      7 C5          0.8296   -2.2385   -1.1399 C.3       1 <0>        -0.1421
      8 C6         -0.5162   -4.3368   -1.3078 C.3       1 <0>        -0.1408
      9 C7         -2.7501   -2.9891   -0.0067 C.2       1 <0>         0.4890
     10 O1         -3.7669   -2.2337   -0.4714 O.3       1 <0>        -0.6926
     11 N1         -2.9712   -4.1990    0.3835 N.2       1 <0>        -1.0508
     12 S2         -4.5029   -4.8247    0.3140 S.o2      1 <0>         2.6441
     13 O2         -5.2846   -4.0893    1.2453 O.2       1 <0>        -0.9940
     14 O3         -4.8428   -4.9144   -1.0629 O.2       1 <0>        -0.9857
     15 C8         -4.4189   -6.4768    0.9206 C.ar      1 <0>        -0.6602
     16 C9         -5.0806   -6.8195    2.0851 C.ar      1 <0>         0.0189
     17 C10        -5.0163   -8.1147    2.5630 C.ar      1 <0>        -0.1605
     18 C11        -4.2887   -9.0717    1.8762 C.ar      1 <0>         0.1356
     19 C12        -3.6246   -8.7301    0.7088 C.ar      1 <0>         0.0065
     20 C13        -3.6951   -7.4319    0.2281 C.ar      1 <0>         0.2043
     21 F1         -3.0535   -7.0978   -0.9130 F         1 <0>        -0.0937
     22 F2         -2.9138   -9.6624    0.0375 F         1 <0>        -0.1170
     23 F3         -4.2257  -10.3375    2.3441 F         1 <0>        -0.1173
     24 H2         -2.6470    1.3698    3.0657 H         1 <0>         0.0637
     25 H3         -1.1843    1.5759    2.0727 H         1 <0>         0.0587
     26 H4         -2.7937    1.6963    1.3221 H         1 <0>         0.0624
     27 H5         -1.5940   -0.8191    2.5671 H         1 <0>         0.0721
     28 H6         -3.2035   -0.6987    1.8166 H         1 <0>         0.0860
     29 H7         -1.0996   -2.4132   -2.0823 H         1 <0>         0.0770
     30 H8          1.3092   -2.5619   -0.2160 H         1 <0>         0.0540
     31 H9          1.4066   -2.5955   -1.9930 H         1 <0>         0.0523
     32 H10         0.7826   -1.1498   -1.1630 H         1 <0>         0.0628
     33 H11        -1.5257   -4.7453   -1.3554 H         1 <0>         0.0758
     34 H12         0.0316   -4.6162   -2.2078 H         1 <0>         0.0467
     35 H13        -0.0039   -4.7355   -0.4322 H         1 <0>         0.0547
     36 H14        -5.6483   -6.0741    2.6221 H         1 <0>         0.1682
     37 H15        -5.5336   -8.3804    3.4730 H         1 <0>         0.1599
@<TRIPOS>BOND
     1    1    2 1
     2    1   24 1
     3    1   25 1
     4    1   26 1
     5    2    3 1
     6    2   27 1
     7    2   28 1
     8    3    4 1
     9    4    5 1
    10    4    6 1
    11    4    9 1
    12    6    7 1
    13    6    8 1
    14    6   29 1
    15    7   30 1
    16    7   31 1
    17    7   32 1
    18    8   33 1
    19    8   34 1
    20    8   35 1
    21    9   10 1
    22    9   11 2
    23   11   12 1
    24   12   13 2
    25   12   14 2
    26   12   15 1
    27   15   20 ar
    28   15   16 ar
    29   16   17 ar
    30   16   36 1
    31   17   18 ar
    32   17   37 1
    33   18   19 ar
    34   18   23 1
    35   19   20 ar
    36   19   22 1
    37   20   21 1
@<TRIPOS>MOLECULE
ZINC33451680
   44    45     0     0     0
SMALL
USER_CHARGES
(2R)-1-[4-(3,4-dimethylphenoxy)butanoyl]pyrrolidine-2-carboxylic acid
@<TRIPOS>ATOM
      1 C1          1.1474    3.5926    0.0099 C.3       1 <0>        -0.1075
      2 C2          1.1707    2.0858    0.0021 C.ar      1 <0>        -0.1327
      3 C3         -0.0167    1.3770    0.0096 C.ar      1 <0>        -0.0765
      4 C4          0.0021   -0.0041    0.0020 C.ar      1 <0>        -0.2126
      5 C5          1.2136   -0.6802   -0.0132 C.ar      1 <0>         0.1346
      6 C6          2.4032    0.0331   -0.0208 C.ar      1 <0>        -0.1521
      7 C7          2.3791    1.4145   -0.0132 C.ar      1 <0>        -0.0491
      8 C8          3.6712    2.1901   -0.0209 C.3       1 <0>        -0.1149
      9 O1          1.2347   -2.0390   -0.0212 O.3       1 <0>        -0.3111
     10 C9         -0.0283   -2.7075   -0.0131 C.3       1 <0>         0.0611
     11 C10         0.1957   -4.2210   -0.0239 C.3       1 <0>        -0.1051
     12 C11        -1.1566   -4.9367   -0.0152 C.3       1 <0>        -0.1286
     13 C12        -0.9360   -6.4274   -0.0258 C.2       1 <0>         0.5308
     14 O2          0.1917   -6.8735   -0.0390 O.2       1 <0>        -0.5251
     15 N1         -1.9919   -7.2650   -0.0207 N.am      1 <0>        -0.6010
     16 C13        -3.4094   -6.8603    0.0014 C.3       1 <0>         0.0958
     17 C14        -4.1721   -8.0621   -0.6155 C.3       1 <0>        -0.1338
     18 C15        -3.3707   -9.2622   -0.0454 C.3       1 <0>        -0.0950
     19 C16        -1.9209   -8.7334   -0.0297 C.3       1 <0>         0.0929
     20 H1         -1.3422   -9.0566   -0.9076 H         1 <0>         0.0754
     21 C17        -1.2113   -9.2199    1.2076 C.2       1 <0>         0.4605
     22 O3         -0.8024   -8.4256    2.0212 O.co2     1 <0>        -0.6204
     23 O4         -1.0336  -10.5355    1.4059 O.co2     1 <0>        -0.7719
     24 H2          0.1048    3.9431    0.0220 H         1 <0>         0.0614
     25 H3          1.6513    3.9718   -0.8914 H         1 <0>         0.0654
     26 H4          1.6691    3.9627    0.9048 H         1 <0>         0.0657
     27 H5         -0.9594    1.9038    0.0169 H         1 <0>         0.1227
     28 H6         -0.9255   -0.5572    0.0083 H         1 <0>         0.1280
     29 H7          3.3475   -0.4909   -0.0330 H         1 <0>         0.1303
     30 H8          4.5192    1.4896   -0.0330 H         1 <0>         0.0666
     31 H9          3.7272    2.8182    0.8804 H         1 <0>         0.0713
     32 H10         3.7102    2.8286   -0.9158 H         1 <0>         0.0711
     33 H11        -0.5864   -2.4259    0.8920 H         1 <0>         0.0636
     34 H12        -0.6034   -2.4156   -0.9042 H         1 <0>         0.0620
     35 H13         0.7538   -4.5026   -0.9290 H         1 <0>         0.0816
     36 H14         0.7708   -4.5129    0.8672 H         1 <0>         0.0859
     37 H15        -1.7147   -4.6550    0.8899 H         1 <0>         0.0916
     38 H16        -1.7317   -4.6448   -0.9063 H         1 <0>         0.0878
     39 H17        -3.7199   -6.6688    1.0392 H         1 <0>         0.0627
     40 H18        -3.5388   -5.9450   -0.5948 H         1 <0>         0.0673
     41 H19        -5.2202   -8.0412   -0.2824 H         1 <0>         0.0774
     42 H20        -4.1347   -7.9958   -1.7129 H         1 <0>         0.0711
     43 H21        -3.7429   -9.5070    0.9604 H         1 <0>         0.0749
     44 H22        -3.4963  -10.1335   -0.7050 H         1 <0>         0.0783
@<TRIPOS>BOND
     1    1    2 1
     2    1   24 1
     3    1   25 1
     4    1   26 1
     5    2    7 ar
     6    2    3 ar
     7    3    4 ar
     8    3   27 1
     9    4    5 ar
    10    4   28 1
    11    5    6 ar
    12    5    9 1
    13    6    7 ar
    14    6   29 1
    15    7    8 1
    16    8   30 1
    17    8   31 1
    18    8   32 1
    19    9   10 1
    20   10   11 1
    21   10   33 1
    22   10   34 1
    23   11   12 1
    24   11   35 1
    25   11   36 1
    26   12   13 1
    27   12   37 1
    28   12   38 1
    29   13   14 2
    30   13   15 am
    31   15   19 1
    32   15   16 1
    33   16   17 1
    34   16   39 1
    35   16   40 1
    36   17   18 1
    37   17   41 1
    38   17   42 1
    39   18   19 1
    40   18   43 1
    41   18   44 1
    42   19   20 1
    43   19   21 1
    44   21   22 2
    45   21   23 1
@<TRIPOS>MOLECULE
ZINC37454346
   38    39     0     0     0
SMALL
USER_CHARGES

@<TRIPOS>ATOM
      1 C1          0.0835    1.5356    0.0660 C.3       1 <0>        -0.1438
      2 C2         -0.1566    0.0325   -0.0881 C.3       1 <0>        -0.0742
      3 C3         -1.6494   -0.2263   -0.3014 C.3       1 <0>        -0.1530
      4 C4          0.6286   -0.4885   -1.2934 C.3       1 <0>        -0.0617
      5 H1          0.2458   -0.0269   -2.2036 H         1 <0>         0.0941
      6 C5          2.0866   -0.1438   -1.1302 C.ar      1 <0>        -0.0594
      7 C6          2.7929   -0.6252   -0.0437 C.ar      1 <0>        -0.0906
      8 C7          4.1301   -0.3094    0.1065 C.ar      1 <0>        -0.1064
      9 C8          4.7617    0.4886   -0.8308 C.ar      1 <0>        -0.0369
     10 C9          4.0542    0.9701   -1.9179 C.ar      1 <0>        -0.1085
     11 C10         2.7185    0.6489   -2.0700 C.ar      1 <0>        -0.1023
     12 Cl1         6.4410    0.8862   -0.6425 Cl        1 <0>        -0.0777
     13 C11         0.4734   -1.9847   -1.3854 C.2       1 <0>         0.5375
     14 O1          0.3484   -2.6446   -0.3756 O.2       1 <0>        -0.5103
     15 N1          0.4736   -2.5894   -2.5899 N.am      1 <0>        -0.5841
     16 C12         0.5218   -1.8149   -3.8492 C.3       1 <0>         0.1675
     17 S1          1.1900   -3.0768   -5.0211 S.3       1 <0>        -0.3176
     18 C13         0.4568   -4.5501   -4.1793 C.3       1 <0>        -0.0241
     19 C14         0.4325   -4.0362   -2.7187 C.3       1 <0>         0.0552
     20 H2          1.2870   -4.4552   -2.1873 H         1 <0>         0.0785
     21 C15        -0.8259   -4.5395   -2.0600 C.2       1 <0>         0.5052
     22 O2         -1.8221   -3.8371   -2.0318 O.co2     1 <0>        -0.6785
     23 O3         -0.8479   -5.6490   -1.5551 O.co2     1 <0>        -0.6882
     24 H3          1.1470    1.7200    0.2180 H         1 <0>         0.0549
     25 H4         -0.2495    2.0510   -0.8349 H         1 <0>         0.0536
     26 H5         -0.4759    1.9068    0.9247 H         1 <0>         0.0568
     27 H6          0.1764   -0.4829    0.8128 H         1 <0>         0.0845
     28 H7         -1.9975    0.3434   -1.1630 H         1 <0>         0.0502
     29 H8         -1.8122   -1.2894   -0.4789 H         1 <0>         0.0753
     30 H9         -2.2022    0.0827    0.5858 H         1 <0>         0.0550
     31 H10         2.2997   -1.2478    0.6880 H         1 <0>         0.1394
     32 H11         4.6817   -0.6852    0.9555 H         1 <0>         0.1332
     33 H12         4.5466    1.5933   -2.6497 H         1 <0>         0.1328
     34 H13         2.1673    1.0208   -2.9211 H         1 <0>         0.1317
     35 H14        -0.4750   -1.4910   -4.1485 H         1 <0>         0.0928
     36 H15         1.1983   -0.9648   -3.7609 H         1 <0>         0.1046
     37 H16        -0.5480   -4.7573   -4.5474 H         1 <0>         0.0990
     38 H17         1.1006   -5.4241   -4.2784 H         1 <0>         0.1154
@<TRIPOS>BOND
     1    1    2 1
     2    1   24 1
     3    1   25 1
     4    1   26 1
     5    2    3 1
     6    2    4 1
     7    2   27 1
     8    3   28 1
     9    3   29 1
    10    3   30 1
    11    4    5 1
    12    4    6 1
    13    4   13 1
    14    6   11 ar
    15    6    7 ar
    16    7    8 ar
    17    7   31 1
    18    8    9 ar
    19    8   32 1
    20    9   10 ar
    21    9   12 1
    22   10   11 ar
    23   10   33 1
    24   11   34 1
    25   13   14 2
    26   13   15 am
    27   15   19 1
    28   15   16 1
    29   16   17 1
    30   16   35 1
    31   16   36 1
    32   17   18 1
    33   18   19 1
    34   18   37 1
    35   18   38 1
    36   19   20 1
    37   19   21 1
    38   21   22 2
    39   21   23 1
@<TRIPOS>MOLECULE
ZINC41887805
   33    35     0     0     0
SMALL
USER_CHARGES

@<TRIPOS>ATOM
      1 C1          4.1523   -0.0799    0.9644 C.2       1 <0>        -0.3229
      2 C2          4.6255    0.2936   -0.2971 C.2       1 <0>         0.2321
      3 N1          3.9983   -0.1174   -1.3805 N.2       1 <0>        -0.5522
      4 C3          2.9123   -0.8889   -1.2909 C.2       1 <0>         0.6323
      5 O1          2.3501   -1.2558   -2.3091 O.2       1 <0>        -0.4939
      6 N2          2.4292   -1.2680   -0.0930 N.am      1 <0>        -0.4707
      7 C4          3.0455   -0.8660    1.0492 C.2       1 <0>         0.1866
      8 C5          1.2359   -2.1150   -0.0207 C.3       1 <0>         0.1435
      9 C6          0.8846   -2.3656    1.4232 C.ar      1 <0>        -0.0625
     10 C7          1.4845   -3.4046    2.1100 C.ar      1 <0>        -0.0924
     11 C8          1.1627   -3.6350    3.4342 C.ar      1 <0>        -0.1172
     12 C9          0.2399   -2.8255    4.0725 C.ar      1 <0>        -0.0320
     13 C10        -0.3602   -1.7858    3.3847 C.ar      1 <0>        -0.1119
     14 C11        -0.0333   -1.5529    2.0621 C.ar      1 <0>        -0.0691
     15 Cl1        -0.1653   -3.1146    5.7356 Cl        1 <0>        -0.0800
     16 C12         1.5143   -3.4487   -0.7168 C.3       1 <0>        -0.1488
     17 C13         0.7842   -3.7246   -2.0328 C.3       1 <0>        -0.1433
     18 C14         0.3784   -4.4728   -0.7614 C.3       1 <0>        -0.1629
     19 C15         0.0858   -1.4218   -0.7045 C.2       1 <0>         0.5160
     20 O2          0.2477   -0.3223   -1.2058 O.co2     1 <0>        -0.6597
     21 O3         -1.0067   -1.9605   -0.7565 O.co2     1 <0>        -0.6715
     22 H1          4.6611    0.2476    1.8590 H         1 <0>         0.1474
     23 H2          5.5027    0.9177   -0.3832 H         1 <0>         0.1634
     24 H3          2.6617   -1.1675    2.0126 H         1 <0>         0.1595
     25 H4          2.2046   -4.0367    1.6115 H         1 <0>         0.1315
     26 H5          1.6312   -4.4470    3.9705 H         1 <0>         0.1325
     27 H6         -1.0808   -1.1538    3.8823 H         1 <0>         0.1339
     28 H7         -0.4981   -0.7384    1.5264 H         1 <0>         0.1379
     29 H8          2.5309   -3.8287   -0.6155 H         1 <0>         0.0891
     30 H9          0.1057   -2.9559   -2.4026 H         1 <0>         0.1140
     31 H10         1.3206   -4.2861   -2.7977 H         1 <0>         0.0789
     32 H11         0.6478   -5.5266   -0.6899 H         1 <0>         0.0813
     33 H12        -0.5671   -4.1964   -0.2948 H         1 <0>         0.1108
@<TRIPOS>BOND
     1    1    7 2
     2    1    2 1
     3    1   22 1
     4    2    3 2
     5    2   23 1
     6    3    4 1
     7    4    5 2
     8    4    6 am
     9    6    7 1
    10    6    8 1
    11    7   24 1
    12    8    9 1
    13    8   16 1
    14    8   19 1
    15    9   14 ar
    16    9   10 ar
    17   10   11 ar
    18   10   25 1
    19   11   12 ar
    20   11   26 1
    21   12   13 ar
    22   12   15 1
    23   13   14 ar
    24   13   27 1
    25   14   28 1
    26   16   18 1
    27   16   17 1
    28   16   29 1
    29   17   18 1
    30   17   30 1
    31   17   31 1
    32   18   32 1
    33   18   33 1
    34   19   20 2
    35   19   21 1
@<TRIPOS>MOLECULE
ZINC48489479
   28    28     0     0     0
SMALL
USER_CHARGES

@<TRIPOS>ATOM
      1 C1         -0.0157    1.3058    0.0092 C.2       1 <0>        -0.1857
      2 C2          0.0021   -0.0041    0.0020 C.2       1 <0>        -0.1248
      3 C3          1.3172   -0.7397   -0.0145 C.3       1 <0>        -0.1001
      4 S1          1.5068   -1.6740    1.5288 S.3       1 <0>        -0.1703
      5 C4          3.1169   -2.4909    1.3523 C.3       1 <0>        -0.0594
      6 C5          3.4014   -3.3117    2.5836 C.2       1 <0>         0.5059
      7 O1          4.5507   -4.0123    2.6767 O.3       1 <0>        -0.7137
      8 N1          2.5458   -3.3447    3.5490 N.2       1 <0>        -1.0415
      9 S2          2.8584   -4.2467    4.9021 S.o2      1 <0>         2.6543
     10 O2          2.8608   -5.6071    4.4917 O.2       1 <0>        -0.9960
     11 O3          3.9729   -3.6427    5.5443 O.2       1 <0>        -0.9972
     12 C6          1.4845   -4.0507    5.9878 C.ar      1 <0>        -0.6823
     13 C7          1.4688   -3.0256    6.9221 C.ar      1 <0>         0.0364
     14 C8          0.3679   -2.9092    7.7555 C.ar      1 <0>        -0.1787
     15 C9         -0.6721   -3.8134    7.6287 C.ar      1 <0>         0.2093
     16 N2         -0.6224   -4.7763    6.7280 N.ar      1 <0>        -0.4941
     17 C10         0.4074   -4.9126    5.9150 C.ar      1 <0>         0.2160
     18 Cl1        -2.0572   -3.6796    8.6667 Cl        1 <0>        -0.0334
     19 H1          0.9122    1.8585    0.0033 H         1 <0>         0.0962
     20 H2         -0.9582    1.8330    0.0166 H         1 <0>         0.0990
     21 H3         -0.9258   -0.5567    0.0079 H         1 <0>         0.1146
     22 H4          1.3385   -1.4270   -0.8602 H         1 <0>         0.0824
     23 H5          2.1332   -0.0231   -0.1080 H         1 <0>         0.0766
     24 H6          3.1003   -3.1413    0.4778 H         1 <0>         0.0968
     25 H7          3.8951   -1.7375    1.2300 H         1 <0>         0.0964
     26 H8          2.2953   -2.3346    6.9985 H         1 <0>         0.1603
     27 H9          0.3222   -2.1231    8.4947 H         1 <0>         0.1514
     28 H10         0.4107   -5.7104    5.1871 H         1 <0>         0.1814
@<TRIPOS>BOND
     1    1    2 2
     2    1   19 1
     3    1   20 1
     4    2    3 1
     5    2   21 1
     6    3    4 1
     7    3   22 1
     8    3   23 1
     9    4    5 1
    10    5    6 1
    11    5   24 1
    12    5   25 1
    13    6    7 1
    14    6    8 2
    15    8    9 1
    16    9   10 2
    17    9   11 2
    18    9   12 1
    19   12   17 ar
    20   12   13 ar
    21   13   14 ar
    22   13   26 1
    23   14   15 ar
    24   14   27 1
    25   15   16 ar
    26   15   18 1
    27   16   17 ar
    28   17   28 1
@<TRIPOS>MOLECULE
ZINC61149468
   34    34     0     0     0
SMALL
USER_CHARGES

@<TRIPOS>ATOM
      1 C1         -0.1863    1.6157   -0.0584 C.3       1 <0>        -0.1703
      2 C2         -0.0641    0.0908   -0.0318 C.3       1 <0>         0.0964
      3 N1         -1.4017   -0.5058   -0.0004 N.am      1 <0>        -0.5762
      4 C3         -2.0735   -0.7149   -1.1500 C.2       1 <0>         0.5496
      5 O1         -3.1856   -1.2109   -1.1239 O.2       1 <0>        -0.5244
      6 C4         -1.4873   -0.3584   -2.3861 C.2       1 <0>        -0.1698
      7 C5         -2.1638   -0.5689   -3.5440 C.2       1 <0>        -0.0121
      8 C6         -1.5773   -0.2123   -4.7808 C.2       1 <0>        -0.1359
      9 C7         -2.0961   -0.3366   -6.0653 C.2       1 <0>        -0.1296
     10 C8         -1.2823    0.1019   -7.0807 C.2       1 <0>        -0.1503
     11 C9         -0.0615    0.6128   -6.7743 C.2       1 <0>        -0.1974
     12 S1          0.0162    0.5209   -5.0987 S.3       1 <0>         0.2272
     13 Cl1         1.1409    1.2279   -7.8650 Cl        1 <0>         0.0071
     14 C10        -2.0092   -0.8752    1.2805 C.3       1 <0>         0.0982
     15 C11        -1.0514   -0.5215    2.4200 C.3       1 <0>        -0.1333
     16 C12        -3.3219   -0.1105    1.4618 C.3       1 <0>        -0.1376
     17 C13        -2.2845   -2.3568    1.2973 C.2       1 <0>         0.5044
     18 O2         -1.8960   -3.0594    0.3797 O.co2     1 <0>        -0.6786
     19 O3         -2.8957   -2.8528    2.2283 O.co2     1 <0>        -0.6992
     20 H1          0.8090    2.0595   -0.0817 H         1 <0>         0.0612
     21 H2         -0.7409    1.9203   -0.9459 H         1 <0>         0.0542
     22 H3         -0.7140    1.9535    0.8335 H         1 <0>         0.0592
     23 H4          0.4636   -0.2471   -0.9237 H         1 <0>         0.0687
     24 H5          0.4905   -0.2139    0.8558 H         1 <0>         0.0842
     25 H6         -0.5011    0.0814   -2.4093 H         1 <0>         0.1219
     26 H7         -3.1500   -1.0087   -3.5209 H         1 <0>         0.1544
     27 H8         -3.0755   -0.7516   -6.2521 H         1 <0>         0.1519
     28 H9         -1.6081    0.0412   -8.1086 H         1 <0>         0.1388
     29 H10        -0.8523    0.5500    2.4079 H         1 <0>         0.0482
     30 H11        -1.5034   -0.7964    3.3731 H         1 <0>         0.0699
     31 H12        -0.1162   -1.0663    2.2909 H         1 <0>         0.0531
     32 H13        -4.0043   -0.3625    0.6500 H         1 <0>         0.0692
     33 H14        -3.7739   -0.3853    2.4148 H         1 <0>         0.0627
     34 H15        -3.1228    0.9611    1.4497 H         1 <0>         0.0341
@<TRIPOS>BOND
     1    1    2 1
     2    1   20 1
     3    1   21 1
     4    1   22 1
     5    2    3 1
     6    2   23 1
     7    2   24 1
     8    3    4 am
     9    3   14 1
    10    4    5 2
    11    4    6 1
    12    6    7 2
    13    6   25 1
    14    7    8 1
    15    7   26 1
    16    8   12 1
    17    8    9 2
    18    9   10 1
    19    9   27 1
    20   10   11 2
    21   10   28 1
    22   11   12 1
    23   11   13 1
    24   14   15 1
    25   14   16 1
    26   14   17 1
    27   15   29 1
    28   15   30 1
    29   15   31 1
    30   16   32 1
    31   16   33 1
    32   16   34 1
    33   17   18 2
    34   17   19 1
@<TRIPOS>MOLECULE
ZINC05686509
   38    40     0     0     0
SMALL
USER_CHARGES
5-(1,5-dimethylpyrazol-3-yl)-4-(4-ethoxyphenyl)-1,2,4-triazole-3-thiol
@<TRIPOS>ATOM
      1 C1          4.2378    8.8562   -0.9635 C.3       1 <0>        -0.1525
      2 C2          3.8167    7.3971   -1.1490 C.3       1 <0>         0.0524
      3 O1          3.1065    6.9552    0.0097 O.3       1 <0>        -0.3169
      4 C3          2.6590    5.6715    0.0071 C.ar      1 <0>         0.1283
      5 C4          1.9621    5.1779    1.1004 C.ar      1 <0>        -0.1433
      6 C5          1.5074    3.8741    1.0982 C.ar      1 <0>        -0.0432
      7 C6          1.7476    3.0573    0.0018 C.ar      1 <0>         0.1280
      8 C7          2.4499    3.5499   -1.0896 C.ar      1 <0>        -0.0452
      9 C8          2.8997    4.8554   -1.0887 C.ar      1 <0>        -0.1996
     10 N1          1.2856    1.7323   -0.0009 N.pl3     1 <0>        -0.4433
     11 C9          2.0472    0.5848   -0.0143 C.2       1 <0>         0.1859
     12 N2          1.2143   -0.4300   -0.0118 N.2       1 <0>        -0.2571
     13 N3          0.0021   -0.0041    0.0020 N.2       1 <0>        -0.3362
     14 C10        -0.0157    1.3098    0.0092 C.2       1 <0>         0.3845
     15 S1         -1.4480    2.3360    0.0219 S.3       1 <0>        -0.7882
     16 C11         3.5239    0.5100   -0.0288 C.2       1 <0>         0.1737
     17 C12         4.2954   -0.6706   -0.0429 C.2       1 <0>        -0.2319
     18 C13         5.5976   -0.3138   -0.0540 C.2       1 <0>         0.0728
     19 N4          5.6614    1.0354   -0.0474 N.pl3     1 <0>        -0.3739
     20 N5          4.3528    1.5348   -0.0365 N.2       1 <0>        -0.2774
     21 C14         6.8872    1.8377   -0.0557 C.3       1 <0>         0.1011
     22 C15         6.7737   -1.2558   -0.0709 C.3       1 <0>        -0.0891
     23 H1          4.7845    9.1963   -1.8554 H         1 <0>         0.0759
     24 H2          4.8882    8.9407   -0.0804 H         1 <0>         0.0649
     25 H3          3.3435    9.4807   -0.8213 H         1 <0>         0.0664
     26 H4          3.1663    7.3126   -2.0321 H         1 <0>         0.0617
     27 H5          4.7110    6.7726   -1.2912 H         1 <0>         0.0597
     28 H6          1.7749    5.8135    1.9532 H         1 <0>         0.1327
     29 H7          0.9652    3.4898    1.9495 H         1 <0>         0.1315
     30 H8          2.6409    2.9134   -1.9409 H         1 <0>         0.1183
     31 H9          3.4426    5.2400   -1.9394 H         1 <0>         0.1264
     32 H10         3.9126   -1.6805   -0.0451 H         1 <0>         0.1547
     33 H11         6.6261    2.9062   -0.0472 H         1 <0>         0.0934
     34 H12         7.4686    1.6095   -0.9612 H         1 <0>         0.0759
     35 H13         7.4872    1.5998    0.8350 H         1 <0>         0.0764
     36 H14         7.7082   -0.6755   -0.0771 H         1 <0>         0.0660
     37 H15         6.7267   -1.8849   -0.9720 H         1 <0>         0.0835
     38 H16         6.7447   -1.8946    0.8242 H         1 <0>         0.0835
@<TRIPOS>BOND
     1    1    2 1
     2    1   23 1
     3    1   24 1
     4    1   25 1
     5    2    3 1
     6    2   26 1
     7    2   27 1
     8    3    4 1
     9    4    9 ar
    10    4    5 ar
    11    5    6 ar
    12    5   28 1
    13    6    7 ar
    14    6   29 1
    15    7    8 ar
    16    7   10 1
    17    8    9 ar
    18    8   30 1
    19    9   31 1
    20   10   14 1
    21   10   11 1
    22   11   16 1
    23   11   12 2
    24   12   13 1
    25   13   14 2
    26   14   15 1
    27   16   20 2
    28   16   17 1
    29   17   18 2
    30   17   32 1
    31   18   19 1
    32   18   22 1
    33   19   20 1
    34   19   21 1
    35   21   33 1
    36   21   34 1
    37   21   35 1
    38   22   36 1
    39   22   37 1
    40   22   38 1
@<TRIPOS>MOLECULE
ZINC04632389
   35    39     0     0     0
SMALL
USER_CHARGES

@<TRIPOS>ATOM
      1 C1         -0.0169    1.3932    0.0097 C.ar      1 <0>        -0.1405
      2 C2          1.1806    2.0791    0.0020 C.ar      1 <0>         0.0947
      3 N1          2.3307    1.4332   -0.0129 N.ar      1 <0>        -0.4849
      4 C3          2.3924    0.1155   -0.0206 C.ar      1 <0>         0.0920
      5 C4          1.2425   -0.6474   -0.0138 C.ar      1 <0>        -0.1323
      6 C5          0.0021   -0.0041    0.0020 C.ar      1 <0>         0.0497
      7 C6         -1.2609   -0.7836    0.0099 C.2       1 <0>         0.2515
      8 N2         -1.3461   -2.1182    0.0089 N.2       1 <0>        -0.5441
      9 C7         -2.6137   -2.4770    0.0169 C.2       1 <0>         0.3657
     10 C8         -3.2951   -3.7868    0.0188 C.2       1 <0>        -0.2588
     11 C9         -2.7087   -5.1252    0.0084 C.2       1 <0>        -0.0200
     12 C10        -3.5653   -6.1692    0.0126 C.2       1 <0>        -0.2196
     13 S1         -5.1795   -5.4374    0.0313 S.3       1 <0>         0.0771
     14 C11        -4.6974   -3.7291    0.0309 C.2       1 <0>         0.1898
     15 N3         -5.3571   -2.5763    0.0381 N.2       1 <0>        -0.5533
     16 C12        -4.7380   -1.4209    0.0341 C.2       1 <0>         0.6340
     17 N4         -3.3761   -1.3432    0.0242 N.pl3     1 <0>        -0.3490
     18 N5         -2.4743   -0.2690    0.0247 N.2       1 <0>        -0.2899
     19 O1         -5.4653   -0.2811    0.0407 O.3       1 <0>        -0.6186
     20 C13        -3.2198   -7.6270    0.0025 C.3       1 <0>        -0.0225
     21 C14        -1.7421   -7.7714   -0.3889 C.3       1 <0>        -0.1127
     22 C15        -0.9152   -6.7884    0.4450 C.3       1 <0>        -0.1184
     23 C16        -1.2000   -5.3556   -0.0070 C.3       1 <0>        -0.0584
     24 H1         -0.9548    1.9284    0.0260 H         1 <0>         0.1443
     25 H2          1.1761    3.1591    0.0078 H         1 <0>         0.1594
     26 H3          3.3557   -0.3727   -0.0328 H         1 <0>         0.1591
     27 H4          1.3004   -1.7259   -0.0208 H         1 <0>         0.1470
     28 H5         -3.3797   -8.0491    0.9947 H         1 <0>         0.0730
     29 H6         -3.8445   -8.1474   -0.7235 H         1 <0>         0.0727
     30 H7         -1.4090   -8.7900   -0.1901 H         1 <0>         0.0664
     31 H8         -1.6206   -7.5447   -1.4482 H         1 <0>         0.0657
     32 H9         -1.1783   -6.8957    1.4973 H         1 <0>         0.0629
     33 H10         0.1450   -7.0053    0.3142 H         1 <0>         0.0631
     34 H11        -0.8183   -5.2078   -1.0172 H         1 <0>         0.0733
     35 H12        -0.7167   -4.6553    0.6743 H         1 <0>         0.0815
@<TRIPOS>BOND
     1    1    6 ar
     2    1    2 ar
     3    1   24 1
     4    2    3 ar
     5    2   25 1
     6    3    4 ar
     7    4    5 ar
     8    4   26 1
     9    5    6 ar
    10    5   27 1
    11    6    7 1
    12    7   18 2
    13    7    8 1
    14    8    9 2
    15    9   17 1
    16    9   10 1
    17   10   14 2
    18   10   11 1
    19   11   23 1
    20   11   12 2
    21   12   13 1
    22   12   20 1
    23   13   14 1
    24   14   15 1
    25   15   16 2
    26   16   17 1
    27   16   19 1
    28   17   18 1
    29   20   21 1
    30   20   28 1
    31   20   29 1
    32   21   22 1
    33   21   30 1
    34   21   31 1
    35   22   23 1
    36   22   32 1
    37   22   33 1
    38   23   34 1
    39   23   35 1
@<TRIPOS>MOLECULE
ZINC01016698
   36    39     0     0     0
SMALL
USER_CHARGES

@<TRIPOS>ATOM
      1 C1         -0.5109    1.0693    0.9784 C.ar      1 <0>        -0.1172
      2 C2          0.5663    1.9147    0.7890 C.ar      1 <0>        -0.1323
      3 C3          1.8192    1.3907    0.5311 C.ar      1 <0>        -0.1077
      4 C4          1.9950    0.0212    0.4630 C.ar      1 <0>        -0.1056
      5 C5          0.9180   -0.8242    0.6533 C.ar      1 <0>        -0.0746
      6 C6         -0.3352   -0.3001    0.9098 C.ar      1 <0>        -0.1253
      7 C7          3.3607   -0.5500    0.1808 C.3       1 <0>         0.1591
      8 N1          4.0663   -0.7756    1.4447 N.pl3     1 <0>        -0.4740
      9 C8          4.9480    0.0693    2.0604 C.2       1 <0>         0.0770
     10 N2          5.3416   -0.5131    3.1575 N.2       1 <0>        -0.2690
     11 N3          4.7734   -1.6598    3.2767 N.2       1 <0>        -0.3412
     12 C9          3.9757   -1.8704    2.2555 C.2       1 <0>         0.3840
     13 S1          2.9791   -3.2975    1.9815 S.3       1 <0>        -0.7947
     14 C10         5.3840    1.4230    1.5620 C.3       1 <0>         0.2374
     15 N4          6.6400    1.2889    0.8199 N.pl3     1 <0>        -0.3836
     16 C11         7.9111    1.4475    1.3186 C.ar      1 <0>         0.0978
     17 C12         8.4253    1.7598    2.5725 C.ar      1 <0>        -0.1076
     18 C13         9.7776    1.8458    2.7500 C.ar      1 <0>        -0.0739
     19 C14        10.6453    1.6243    1.6882 C.ar      1 <0>        -0.1361
     20 C15        10.1663    1.3165    0.4486 C.ar      1 <0>        -0.0408
     21 C16         8.7838    1.2217    0.2400 C.ar      1 <0>        -0.0210
     22 N5          8.0318    0.9423   -0.8433 N.2       1 <0>        -0.2243
     23 N6          6.7823    0.9674   -0.5382 N.2       1 <0>        -0.0077
     24 H1         -1.4889    1.4786    1.1844 H         1 <0>         0.1174
     25 H2          0.4289    2.9846    0.8422 H         1 <0>         0.1182
     26 H3          2.6606    2.0512    0.3824 H         1 <0>         0.1137
     27 H4          1.0552   -1.8941    0.5998 H         1 <0>         0.1464
     28 H5         -1.1767   -0.9606    1.0581 H         1 <0>         0.1210
     29 H6          3.2561   -1.4959   -0.3508 H         1 <0>         0.1051
     30 H7          3.9280    0.1504   -0.4320 H         1 <0>         0.0900
     31 H8          4.6163    1.8332    0.9059 H         1 <0>         0.1081
     32 H9          5.5326    2.0918    2.4098 H         1 <0>         0.1226
     33 H10         7.7578    1.9342    3.4035 H         1 <0>         0.1353
     34 H11        10.1752    2.0884    3.7244 H         1 <0>         0.1356
     35 H12        11.7113    1.6970    1.8457 H         1 <0>         0.1334
     36 H13        10.8504    1.1468   -0.3697 H         1 <0>         0.1345
@<TRIPOS>BOND
     1    1    6 ar
     2    1    2 ar
     3    1   24 1
     4    2    3 ar
     5    2   25 1
     6    3    4 ar
     7    3   26 1
     8    4    5 ar
     9    4    7 1
    10    5    6 ar
    11    5   27 1
    12    6   28 1
    13    7   29 1
    14    7   30 1
    15    7    8 1
    16    8   12 1
    17    8    9 1
    18    9   14 1
    19    9   10 2
    20   10   11 1
    21   11   12 2
    22   12   13 1
    23   14   15 1
    24   14   31 1
    25   14   32 1
    26   15   23 1
    27   15   16 1
    28   16   21 ar
    29   16   17 ar
    30   17   18 ar
    31   17   33 1
    32   18   19 ar
    33   18   34 1
    34   19   20 ar
    35   19   35 1
    36   20   21 ar
    37   20   36 1
    38   21   22 1
    39   22   23 2
@<TRIPOS>MOLECULE
ZINC49514603
   31    32     0     0     0
SMALL
USER_CHARGES

@<TRIPOS>ATOM
      1 C1          0.7829   -2.6339    2.3624 C.3       1 <0>        -0.1003
      2 C2          0.2543   -1.9652    1.1196 C.2       1 <0>        -0.0797
      3 C3         -0.0782   -0.6795    1.1474 C.2       1 <0>        -0.1485
      4 C4         -0.0763    0.0544    2.4248 C.2       1 <0>         0.5109
      5 O1         -0.2978    1.3890    2.4385 O.3       1 <0>        -0.7198
      6 N1          0.1386   -0.5814    3.5404 N.2       1 <0>        -1.0392
      7 S1          0.1407    0.2436    4.9763 S.o2      1 <0>         2.6554
      8 O2          1.2594    1.1191    4.9400 O.2       1 <0>        -1.0055
      9 O3         -1.1860    0.7107    5.1783 O.2       1 <0>        -0.9749
     10 C5          0.4609   -0.9301    6.2509 C.2       1 <0>        -0.5688
     11 C6         -0.4612   -1.6475    6.9317 C.2       1 <0>         0.2027
     12 N2          0.1709   -2.4262    7.8135 N.2       1 <0>        -0.4945
     13 C7          1.4777   -2.2247    7.7141 C.2       1 <0>         0.2576
     14 N3          1.6902   -1.2908    6.7335 N.pl3     1 <0>        -0.3058
     15 C8          2.9579   -0.8971    6.4168 C.2       1 <0>         0.0791
     16 C9          4.0216   -1.4221    7.0606 C.2       1 <0>        -0.1522
     17 C10         3.8365   -2.3837    8.0676 C.2       1 <0>        -0.0801
     18 C11         2.5776   -2.7789    8.3988 C.2       1 <0>        -0.0957
     19 Cl1        -2.1797   -1.5691    6.6987 Cl        1 <0>         0.0322
     20 C12         0.1030   -2.7553   -0.1547 C.3       1 <0>        -0.1171
     21 H1         -0.0520   -2.9576    2.9839 H         1 <0>         0.0703
     22 H2          1.3839   -3.4989    2.0820 H         1 <0>         0.0271
     23 H3          1.3991   -1.9288    2.9203 H         1 <0>         0.0974
     24 H4         -0.3499   -0.1721    0.2336 H         1 <0>         0.1163
     25 H5          3.1114   -0.1589    5.6436 H         1 <0>         0.1848
     26 H6          5.0195   -1.1016    6.8002 H         1 <0>         0.1585
     27 H7          4.6894   -2.8028    8.5809 H         1 <0>         0.1475
     28 H8          2.4233   -3.5183    9.1706 H         1 <0>         0.1549
     29 H9         -0.8918   -3.1994   -0.1909 H         1 <0>         0.0676
     30 H10         0.2368   -2.0936   -1.0105 H         1 <0>         0.0603
     31 H11         0.8545   -3.5443   -0.1845 H         1 <0>         0.0593
@<TRIPOS>BOND
     1    1    2 1
     2    1   21 1
     3    1   22 1
     4    1   23 1
     5    2    3 2
     6    2   20 1
     7    3    4 1
     8    3   24 1
     9    4    5 1
    10    4    6 2
    11    6    7 1
    12    7    8 2
    13    7    9 2
    14    7   10 1
    15   10   14 1
    16   10   11 2
    17   11   12 1
    18   11   19 1
    19   12   13 2
    20   13   18 1
    21   13   14 1
    22   14   15 1
    23   15   16 2
    24   15   25 1
    25   16   17 1
    26   16   26 1
    27   17   18 2
    28   17   27 1
    29   18   28 1
    30   20   29 1
    31   20   30 1
    32   20   31 1
@<TRIPOS>MOLECULE
ZINC65153375
   34    36     0     0     0
SMALL
USER_CHARGES

@<TRIPOS>ATOM
      1 C1         -0.0184    1.5028    0.0103 C.3       1 <0>        -0.1114
      2 C2          0.0021   -0.0041    0.0020 C.ar      1 <0>        -0.1152
      3 C3          0.0057   -0.6888   -1.1991 C.ar      1 <0>        -0.0809
      4 C4          0.0245   -2.0707   -1.2067 C.ar      1 <0>        -0.1420
      5 C5          0.0400   -2.7685   -0.0132 C.ar      1 <0>        -0.0281
      6 C6          0.0373   -2.0840    1.1875 C.ar      1 <0>        -0.6147
      7 C7          0.0229   -0.7015    1.1951 C.ar      1 <0>        -0.0226
      8 S1          0.0566   -2.9732    2.7086 S.o2      1 <0>         2.6114
      9 O1         -0.5005   -2.1103    3.6906 O.2       1 <0>        -1.0143
     10 O2         -0.4791   -4.2603    2.4334 O.2       1 <0>        -1.0143
     11 N1          1.6437   -3.1998    3.1232 N.2       1 <0>        -1.0244
     12 C8          1.9649   -3.8764    4.2858 C.2       1 <0>         0.3969
     13 C9          3.2182   -4.1253    4.7435 C.2       1 <0>        -0.3775
     14 C10         3.1049   -4.8376    5.9555 C.2       1 <0>         0.1438
     15 N2          1.8278   -5.0056    6.2082 N.2       1 <0>        -0.3654
     16 O3          1.0908   -4.3976    5.1632 O.3       1 <0>        -0.1554
     17 C11         4.2319   -5.3140    6.7971 C.ar      1 <0>         0.0369
     18 C12         5.5567   -5.0702    6.4270 C.ar      1 <0>        -0.1425
     19 C13         6.5743   -5.5307    7.2381 C.ar      1 <0>         0.0929
     20 N3          6.3086   -6.1924    8.3477 N.ar      1 <0>        -0.4886
     21 C14         5.0723   -6.4433    8.7327 C.ar      1 <0>         0.0930
     22 C15         3.9959   -6.0131    7.9833 C.ar      1 <0>        -0.1471
     23 H1          1.0042    1.8801    0.0026 H         1 <0>         0.0706
     24 H2         -0.5455    1.8639   -0.8728 H         1 <0>         0.0646
     25 H3         -0.5286    1.8543    0.9071 H         1 <0>         0.0680
     26 H4         -0.0064   -0.1437   -2.1314 H         1 <0>         0.1239
     27 H5          0.0266   -2.6056   -2.1449 H         1 <0>         0.1274
     28 H6          0.0540   -3.8484   -0.0191 H         1 <0>         0.1370
     29 H7          0.0246   -0.1666    2.1333 H         1 <0>         0.1367
     30 H8          4.1398   -3.8302    4.2640 H         1 <0>         0.1415
     31 H9          5.7815   -4.5297    5.5194 H         1 <0>         0.1442
     32 H10         7.6016   -5.3471    6.9603 H         1 <0>         0.1579
     33 H11         4.8998   -6.9887    9.6488 H         1 <0>         0.1566
     34 H12         2.9861   -6.2180    8.3069 H         1 <0>         0.1410
@<TRIPOS>BOND
     1    1    2 1
     2    1   23 1
     3    1   24 1
     4    1   25 1
     5    2    7 ar
     6    2    3 ar
     7    3    4 ar
     8    3   26 1
     9    4    5 ar
    10    4   27 1
    11    5    6 ar
    12    5   28 1
    13    6    7 ar
    14    6    8 1
    15    7   29 1
    16    8    9 2
    17    8   10 2
    18    8   11 1
    19   11   12 1
    20   12   16 1
    21   12   13 2
    22   13   14 1
    23   13   30 1
    24   14   15 2
    25   14   17 1
    26   15   16 1
    27   17   22 ar
    28   17   18 ar
    29   18   19 ar
    30   18   31 1
    31   19   20 ar
    32   19   32 1
    33   20   21 ar
    34   21   22 ar
    35   21   33 1
    36   22   34 1
@<TRIPOS>MOLECULE
ZINC19326864
   56    60     0     0     0
SMALL
USER_CHARGES
(2R)-4-amino-6-anilino-tetramethyl-spiro[5H-1,3,5-triazine-2,BLAH'-BLAH]one
@<TRIPOS>ATOM
      1 C1         -1.3180    1.8428   -0.1162 C.3       1 <0>        -0.1101
      2 C2         -0.9535    0.3806   -0.1262 C.ar      1 <0>        -0.1104
      3 C3         -0.8779   -0.2962   -1.3360 C.ar      1 <0>        -0.0774
      4 C4         -0.5409   -1.6256   -1.3448 C.ar      1 <0>        -0.0988
      5 C5         -0.2892   -2.2686   -0.1328 C.ar      1 <0>         0.1453
      6 C6         -0.3696   -1.6046    1.0697 C.ar      1 <0>        -0.1166
      7 C7         -0.7046   -0.2686    1.0735 C.ar      1 <0>        -0.0537
      8 C8         -0.0357   -2.6377    2.1171 C.3       1 <0>         0.3613
      9 C9          0.2285   -3.9081    1.3272 C.2       1 <0>         0.5723
     10 O1          0.5319   -4.9887    1.7869 O.2       1 <0>        -0.4932
     11 N1          0.0656   -3.6170    0.0331 N.am      1 <0>        -0.5432
     12 C10         0.2070   -4.4772   -1.1544 C.3       1 <0>         0.1743
     13 C11         0.5925   -3.5941   -2.3465 C.3       1 <0>        -0.1200
     14 C12        -0.4232   -2.4734   -2.5836 C.3       1 <0>        -0.0498
     15 H1         -1.4102   -2.9054   -2.8052 H         1 <0>         0.0871
     16 C13         0.0418   -1.6039   -3.7535 C.3       1 <0>        -0.1448
     17 C14         1.3008   -5.5186   -0.9092 C.3       1 <0>        -0.1602
     18 C15        -1.1206   -5.1810   -1.4422 C.3       1 <0>        -0.1602
     19 N2          1.1673   -2.2512    2.8421 N.2       1 <0>        -0.6498
     20 C16         1.1235   -1.8126    4.0635 C.2       1 <0>         0.6506
     21 N3         -0.0853   -1.7133    4.7216 N.pl3     1 <0>        -0.7373
     22 C17        -1.1792   -2.3936    4.2258 C.2       1 <0>         0.6496
     23 N4         -1.1715   -2.8405    3.0067 N.2       1 <0>        -0.6322
     24 N5         -2.2803   -2.5991    5.0255 N.pl3     1 <0>        -0.6663
     25 C18        -2.2445   -2.2282    6.3736 C.ar      1 <0>         0.1656
     26 C19        -1.0864   -2.4168    7.1168 C.ar      1 <0>        -0.1722
     27 C20        -1.0525   -2.0442    8.4462 C.ar      1 <0>        -0.0871
     28 C21        -2.1736   -1.4946    9.0406 C.ar      1 <0>        -0.1396
     29 C22        -3.3301   -1.3108    8.3050 C.ar      1 <0>        -0.0860
     30 C23        -3.3687   -1.6759    6.9736 C.ar      1 <0>        -0.1451
     31 N6          2.2841   -1.4460    4.7024 N.pl3     1 <0>        -0.8598
     32 H2         -1.4788    2.1877   -1.1483 H         1 <0>         0.0662
     33 H3         -0.5014    2.4211    0.3406 H         1 <0>         0.0665
     34 H4         -2.2399    1.9869    0.4664 H         1 <0>         0.0664
     35 H5         -1.0791    0.2207   -2.2627 H         1 <0>         0.1315
     36 H6         -0.7734    0.2708    2.0066 H         1 <0>         0.1130
     37 H7          1.5739   -3.1337   -2.1595 H         1 <0>         0.0739
     38 H8          0.6435   -4.2091   -3.2571 H         1 <0>         0.0886
     39 H9          0.1279   -2.2228   -4.6588 H         1 <0>         0.0610
     40 H10         1.0213   -1.1631   -3.5161 H         1 <0>         0.0596
     41 H11        -0.6895   -0.8007   -3.9267 H         1 <0>         0.0616
     42 H12         1.4034   -6.1588   -1.7978 H         1 <0>         0.0734
     43 H13         1.0300   -6.1372   -0.0409 H         1 <0>         0.0807
     44 H14         2.2553   -5.0084   -0.7126 H         1 <0>         0.0608
     45 H15        -1.0109   -5.8221   -2.3293 H         1 <0>         0.0748
     46 H16        -1.9016   -4.4289   -1.6276 H         1 <0>         0.0636
     47 H17        -1.4037   -5.7979   -0.5766 H         1 <0>         0.0632
     48 H18        -0.1683   -1.0977    5.6294 H         1 <0>         0.4296
     49 H19        -3.1885   -3.0550    4.6044 H         1 <0>         0.4585
     50 H20        -0.2120   -2.8505    6.6544 H         1 <0>         0.1281
     51 H21        -0.1509   -2.1865    9.0235 H         1 <0>         0.1281
     52 H22        -2.1461   -1.2085   10.0816 H         1 <0>         0.1261
     53 H23        -4.2039   -0.8809    8.7720 H         1 <0>         0.1291
     54 H24        -4.2721   -1.5318    6.3995 H         1 <0>         0.1295
     55 H25         2.2485   -1.0743    5.7371 H         1 <0>         0.4255
     56 H26         3.2484   -1.5244    4.1790 H         1 <0>         0.4480
@<TRIPOS>BOND
     1    1    2 1
     2    1   32 1
     3    1   33 1
     4    1   34 1
     5    2    7 ar
     6    2    3 ar
     7    3    4 ar
     8    3   35 1
     9    4   14 1
    10    4    5 ar
    11    5   11 1
    12    5    6 ar
    13    6    7 ar
    14    6    8 1
    15    7   36 1
    16    8   23 1
    17    8    9 1
    18    8   19 1
    19    9   10 2
    20    9   11 am
    21   11   12 1
    22   12   13 1
    23   12   17 1
    24   12   18 1
    25   13   14 1
    26   13   37 1
    27   13   38 1
    28   14   15 1
    29   14   16 1
    30   16   39 1
    31   16   40 1
    32   16   41 1
    33   17   42 1
    34   17   43 1
    35   17   44 1
    36   18   45 1
    37   18   46 1
    38   18   47 1
    39   19   20 2
    40   20   21 1
    41   20   31 1
    42   21   22 1
    43   21   48 1
    44   22   23 2
    45   22   24 1
    46   24   25 1
    47   24   49 1
    48   25   30 ar
    49   25   26 ar
    50   26   27 ar
    51   26   50 1
    52   27   28 ar
    53   27   51 1
    54   28   29 ar
    55   28   52 1
    56   29   30 ar
    57   29   53 1
    58   30   54 1
    59   31   55 1
    60   31   56 1
@<TRIPOS>MOLECULE
ZINC35352892
   49    51     0     0     0
SMALL
USER_CHARGES

@<TRIPOS>ATOM
      1 C1         -0.9433    1.1963   -3.2513 C.3       1 <0>        -0.1174
      2 C2         -0.9583   -0.2806   -2.9519 C.ar      1 <0>        -0.0958
      3 C3         -0.1616   -0.7880   -1.9417 C.ar      1 <0>        -0.0978
      4 C4         -0.1729   -2.1408   -1.6649 C.ar      1 <0>        -0.1243
      5 C5         -0.9860   -2.9922   -2.4021 C.ar      1 <0>         0.1327
      6 C6         -1.7852   -2.4795   -3.4155 C.ar      1 <0>        -0.1414
      7 C7         -1.7727   -1.1246   -3.6841 C.ar      1 <0>        -0.0679
      8 C8         -2.6438   -0.5665   -4.7799 C.3       1 <0>        -0.1171
      9 N1         -0.9996   -4.3628   -2.1246 N.am      1 <0>        -0.6633
     10 C9          0.1160   -4.9702   -1.6741 C.2       1 <0>         0.5911
     11 O1          1.0863   -4.3053   -1.3591 O.2       1 <0>        -0.4969
     12 C10         0.1598   -6.3817   -1.5671 C.2       1 <0>        -0.2595
     13 C11         0.2728   -7.1615   -2.6631 C.2       1 <0>         0.1857
     14 N2          0.3144   -8.5224   -2.5588 N.pl3     1 <0>        -0.5989
     15 C12         0.2486   -9.1803   -1.3945 C.2       1 <0>         0.5552
     16 S1          0.3119  -10.8911   -1.4051 S.2       1 <0>        -0.5802
     17 N3          0.1347   -8.5394   -0.2143 N.pl3     1 <0>        -0.6491
     18 C13         0.0877   -7.0676   -0.2179 C.3       1 <0>         0.2294
     19 H1          0.9139   -6.6997    0.3906 H         1 <0>         0.1121
     20 C14        -1.1968   -6.6474    0.4488 C.ar      1 <0>        -0.1325
     21 C15        -2.3932   -7.2284    0.0702 C.ar      1 <0>        -0.0322
     22 C16        -3.5719   -6.8451    0.6797 C.ar      1 <0>        -0.1431
     23 C17        -3.5548   -5.8764    1.6730 C.ar      1 <0>         0.1946
     24 C18        -2.3534   -5.2955    2.0513 C.ar      1 <0>        -0.0762
     25 C19        -1.1765   -5.6859    1.4419 C.ar      1 <0>        -0.0200
     26 N4         -2.3317   -4.2616    3.1101 N.pl3     1 <0>         0.0345
     27 O2         -1.2842   -3.7555    3.4395 O.2       1 <0>        -0.1611
     28 O3         -3.3613   -3.9231    3.6457 O.3       1 <0>        -0.1318
     29 O4         -4.7133   -5.4972    2.2739 O.3       1 <0>        -0.4709
     30 C20         0.3538   -6.5196   -4.0242 C.3       1 <0>        -0.1381
     31 H2         -1.6989    1.6973   -2.6461 H         1 <0>         0.0712
     32 H3          0.0396    1.6046   -3.0165 H         1 <0>         0.0674
     33 H4         -1.1600    1.3551   -4.3076 H         1 <0>         0.0689
     34 H5          0.4704   -0.1255   -1.3689 H         1 <0>         0.1273
     35 H6          0.4500   -2.5365   -0.8763 H         1 <0>         0.1454
     36 H7         -2.4182   -3.1388   -3.9907 H         1 <0>         0.1241
     37 H8         -2.0947   -0.5768   -5.7214 H         1 <0>         0.0724
     38 H9         -3.5419   -1.1765   -4.8763 H         1 <0>         0.0662
     39 H10        -2.9249    0.4577   -4.5345 H         1 <0>         0.0716
     40 H11        -1.8119   -4.8763   -2.2564 H         1 <0>         0.4097
     41 H12         0.3959   -9.0418   -3.3741 H         1 <0>         0.4438
     42 H13         0.0883   -9.0358    0.6178 H         1 <0>         0.4494
     43 H14        -2.4060   -7.9824   -0.7030 H         1 <0>         0.1414
     44 H15        -4.5061   -7.2987    0.3831 H         1 <0>         0.1591
     45 H16        -0.2403   -5.2365    1.7387 H         1 <0>         0.1608
     46 H17        -4.9374   -6.0159    3.0587 H         1 <0>         0.4107
     47 H18         1.3859   -6.2373   -4.2319 H         1 <0>         0.1026
     48 H19         0.0113   -7.2263   -4.7801 H         1 <0>         0.0916
     49 H20        -0.2772   -5.6311   -4.0450 H         1 <0>         0.0964
@<TRIPOS>BOND
     1    1    2 1
     2    1   31 1
     3    1   32 1
     4    1   33 1
     5    2    7 ar
     6    2    3 ar
     7    3    4 ar
     8    3   34 1
     9    4    5 ar
    10    4   35 1
    11    5    6 ar
    12    5    9 1
    13    6    7 ar
    14    6   36 1
    15    7    8 1
    16    8   37 1
    17    8   38 1
    18    8   39 1
    19    9   10 am
    20    9   40 1
    21   10   11 2
    22   10   12 1
    23   12   18 1
    24   12   13 2
    25   13   14 1
    26   13   30 1
    27   14   15 1
    28   14   41 1
    29   15   16 2
    30   15   17 1
    31   17   18 1
    32   17   42 1
    33   18   19 1
    34   18   20 1
    35   20   25 ar
    36   20   21 ar
    37   21   22 ar
    38   21   43 1
    39   22   23 ar
    40   22   44 1
    41   23   24 ar
    42   23   29 1
    43   24   25 ar
    44   24   26 1
    45   25   45 1
    46   26   27 2
    47   26   28 1
    48   29   46 1
    49   30   47 1
    50   30   48 1
    51   30   49 1
@<TRIPOS>MOLECULE
ZINC40684600
   42    45     0     0     0
SMALL
USER_CHARGES

@<TRIPOS>ATOM
      1 C1         -0.0237    1.3759   -0.9176 C.ar      1 <0>        -0.1486
      2 C2          1.1391    1.9087   -1.4439 C.ar      1 <0>        -0.0618
      3 C3          2.3412    1.2514   -1.2719 C.ar      1 <0>        -0.1394
      4 C4          2.3819    0.0537   -0.5689 C.ar      1 <0>         0.2235
      5 C5          1.2124   -0.4783   -0.0413 C.ar      1 <0>        -0.2345
      6 C6          0.0133    0.1841   -0.2174 C.ar      1 <0>        -0.0492
      7 C7          1.2517   -1.7771    0.7220 C.3       1 <0>         0.5080
      8 F1         -0.0390   -2.1053    1.1507 F         1 <0>        -0.1718
      9 F2          1.7393   -2.7917   -0.1087 F         1 <0>        -0.1826
     10 F3          2.0912   -1.6401    1.8327 F         1 <0>        -0.1761
     11 N1          3.5967   -0.6143   -0.3933 N.pl3     1 <0>        -0.6517
     12 C8          4.7953    0.0819   -0.5034 C.ar      1 <0>         0.3863
     13 C9          6.0156   -0.5944   -0.4496 C.ar      1 <0>         0.0271
     14 C10         7.1891    0.1530   -0.5657 C.ar      1 <0>         0.3934
     15 N2          7.1005    1.4720   -0.7221 N.ar      1 <0>        -0.5485
     16 C11         5.9281    2.0713   -0.7678 C.ar      1 <0>         0.3221
     17 N3          4.7970    1.4027   -0.6672 N.ar      1 <0>        -0.5498
     18 N4          8.4308   -0.4705   -0.5183 N.pl3     1 <0>        -0.6494
     19 C12         9.6005    0.2982   -0.5234 C.ar      1 <0>         0.1774
     20 C13        10.7433   -0.1805   -1.1507 C.ar      1 <0>        -0.1432
     21 C14        11.8988    0.5772   -1.1562 C.ar      1 <0>        -0.0768
     22 C15        11.9210    1.8160   -0.5362 C.ar      1 <0>         0.0102
     23 C16        10.7764    2.2991    0.0934 C.ar      1 <0>         0.0560
     24 C17         9.6168    1.5417    0.0936 C.ar      1 <0>        -0.0988
     25 O1         11.0543    3.5265    0.6222 O.3       1 <0>        -0.3062
     26 C18        12.4910    3.6109    0.6649 C.3       1 <0>         0.2133
     27 O2         12.9164    2.7420   -0.4015 O.3       1 <0>        -0.3091
     28 N5          6.0614   -1.9875   -0.2828 N.pl3     1 <0>        -0.8725
     29 H1         -0.9619    1.8941   -1.0500 H         1 <0>         0.1340
     30 H2          1.1068    2.8397   -1.9903 H         1 <0>         0.1351
     31 H3          3.2487    1.6677   -1.6838 H         1 <0>         0.1697
     32 H4         -0.8966   -0.2292    0.1922 H         1 <0>         0.1394
     33 H5          3.6038   -1.5637   -0.1947 H         1 <0>         0.4139
     34 H6          5.8929    3.1431   -0.8957 H         1 <0>         0.2033
     35 H7          8.4865   -1.4382   -0.4815 H         1 <0>         0.4177
     36 H8         10.7290   -1.1460   -1.6345 H         1 <0>         0.1388
     37 H9         12.7865    0.2028   -1.6443 H         1 <0>         0.1393
     38 H10         8.7271    1.9163    0.5777 H         1 <0>         0.1487
     39 H11        12.8203    4.6334    0.4802 H         1 <0>         0.1322
     40 H12        12.8673    3.2535    1.6234 H         1 <0>         0.0842
     41 H13         5.2378   -2.4938   -0.2032 H         1 <0>         0.3976
     42 H14         6.9166   -2.4439   -0.2472 H         1 <0>         0.3989
@<TRIPOS>BOND
     1    1    6 ar
     2    1    2 ar
     3    1   29 1
     4    2    3 ar
     5    2   30 1
     6    3    4 ar
     7    3   31 1
     8    4    5 ar
     9    4   11 1
    10    5    6 ar
    11    5    7 1
    12    6   32 1
    13    7    8 1
    14    7    9 1
    15    7   10 1
    16   11   12 1
    17   11   33 1
    18   12   17 ar
    19   12   13 ar
    20   13   14 ar
    21   13   28 1
    22   14   15 ar
    23   14   18 1
    24   15   16 ar
    25   16   17 ar
    26   16   34 1
    27   18   19 1
    28   18   35 1
    29   19   24 ar
    30   19   20 ar
    31   20   21 ar
    32   20   36 1
    33   21   22 ar
    34   21   37 1
    35   22   27 1
    36   22   23 ar
    37   23   24 ar
    38   23   25 1
    39   24   38 1
    40   25   26 1
    41   26   27 1
    42   26   39 1
    43   26   40 1
    44   28   41 1
    45   28   42 1
@<TRIPOS>MOLECULE
ZINC47701024
   47    49     0     0     0
SMALL
USER_CHARGES

@<TRIPOS>ATOM
      1 C1         -0.9687    2.3743    0.3303 C.3       1 <0>        -0.1595
      2 C2         -0.4493    0.9579    0.0755 C.3       1 <0>         0.2060
      3 H1          0.0489    0.9224   -0.8933 H         1 <0>         0.0995
      4 C3          0.5289    0.5793    1.1576 C.ar      1 <0>        -0.1137
      5 C4          0.0650    0.1460    2.3861 C.ar      1 <0>        -0.0914
      6 C5          0.9589   -0.2017    3.3799 C.ar      1 <0>        -0.1223
      7 C6          2.3248   -0.1159    3.1443 C.ar      1 <0>         0.1695
      8 C7          2.7874    0.3196    1.9095 C.ar      1 <0>        -0.1461
      9 C8          1.8883    0.6605    0.9180 C.ar      1 <0>        -0.0815
     10 N1          3.2331   -0.4670    4.1493 N.am      1 <0>        -0.6837
     11 C9          2.8850   -1.3709    5.0865 C.2       1 <0>         0.7079
     12 O1          1.8158   -1.9447    5.0102 O.2       1 <0>        -0.5672
     13 N2          3.7222   -1.6388    6.1082 N.am      1 <0>        -0.7120
     14 C10         3.3438   -2.6213    7.1269 C.3       1 <0>         0.0952
     15 C11         3.6122   -2.2616    8.5895 C.3       1 <0>        -0.1926
     16 C12         4.4721   -3.3169    7.8911 C.3       1 <0>        -0.1886
     17 N3         -1.5726    0.0174    0.0818 N.am      1 <0>        -0.7324
     18 C13        -2.2901   -0.1827   -1.0414 C.2       1 <0>         0.7005
     19 O2         -2.0053    0.4174   -2.0599 O.2       1 <0>        -0.5549
     20 N4         -3.3235   -1.0479   -1.0357 N.am      1 <0>        -0.6815
     21 C14        -4.0258   -1.3091   -2.2209 C.ar      1 <0>         0.0977
     22 C15        -5.3932   -1.5535   -2.1809 C.ar      1 <0>         0.0987
     23 C16        -6.0828   -1.8103   -3.3524 C.ar      1 <0>        -0.1455
     24 C17        -5.4130   -1.8245   -4.5619 C.ar      1 <0>        -0.0771
     25 C18        -4.0525   -1.5818   -4.6057 C.ar      1 <0>        -0.1472
     26 C19        -3.3571   -1.3186   -3.4391 C.ar      1 <0>         0.1294
     27 F1         -2.0288   -1.0760   -3.4835 F         1 <0>        -0.1049
     28 F2         -6.0483   -1.5406   -0.9994 F         1 <0>        -0.1296
     29 H2         -0.1329    3.0741    0.3257 H         1 <0>         0.0701
     30 H3         -1.6761    2.6482   -0.4523 H         1 <0>         0.0656
     31 H4         -1.4669    2.4098    1.2991 H         1 <0>         0.0588
     32 H5         -0.9973    0.0798    2.5689 H         1 <0>         0.1226
     33 H6          0.5961   -0.5397    4.3393 H         1 <0>         0.1457
     34 H7          3.8490    0.3878    1.7233 H         1 <0>         0.1282
     35 H8          2.2475    0.9951   -0.0440 H         1 <0>         0.1306
     36 H9          4.1133   -0.0599    4.1715 H         1 <0>         0.4083
     37 H10         4.5752   -1.1811    6.1690 H         1 <0>         0.3997
     38 H11         2.4498   -3.2052    6.9078 H         1 <0>         0.1414
     39 H12         4.0704   -1.2939    8.7939 H         1 <0>         0.0975
     40 H13         2.8947   -2.6086    9.3330 H         1 <0>         0.1050
     41 H14         4.3203   -4.3582    8.1751 H         1 <0>         0.1063
     42 H15         5.4959   -3.0434    7.6359 H         1 <0>         0.0979
     43 H16        -1.7998   -0.4612    0.8942 H         1 <0>         0.3976
     44 H17        -3.5814   -1.4899   -0.2117 H         1 <0>         0.4120
     45 H18        -7.1455   -2.0003   -3.3221 H         1 <0>         0.1472
     46 H19        -5.9538   -2.0260   -5.4748 H         1 <0>         0.1460
     47 H20        -3.5327   -1.5941   -5.5523 H         1 <0>         0.1465
@<TRIPOS>BOND
     1    1    2 1
     2    1   29 1
     3    1   30 1
     4    1   31 1
     5    2    3 1
     6    2    4 1
     7    2   17 1
     8    4    9 ar
     9    4    5 ar
    10    5    6 ar
    11    5   32 1
    12    6    7 ar
    13    6   33 1
    14    7    8 ar
    15    7   10 1
    16    8    9 ar
    17    8   34 1
    18    9   35 1
    19   10   11 am
    20   10   36 1
    21   11   12 2
    22   11   13 am
    23   13   14 1
    24   13   37 1
    25   14   16 1
    26   14   15 1
    27   14   38 1
    28   15   16 1
    29   15   39 1
    30   15   40 1
    31   16   41 1
    32   16   42 1
    33   17   18 am
    34   17   43 1
    35   18   19 2
    36   18   20 am
    37   20   21 1
    38   20   44 1
    39   21   26 ar
    40   21   22 ar
    41   22   23 ar
    42   22   28 1
    43   23   24 ar
    44   23   45 1
    45   24   25 ar
    46   24   46 1
    47   25   26 ar
    48   25   47 1
    49   26   27 1
@<TRIPOS>MOLECULE
ZINC04915933
   52    55     0     0     0
SMALL
USER_CHARGES

@<TRIPOS>ATOM
      1 C1         -1.2460    1.6989   -0.5414 C.3       1 <0>        -0.0805
      2 C2         -1.0446    0.2434   -0.2068 C.2       1 <0>         0.0917
      3 C3         -0.5546   -0.7365   -1.0755 C.2       1 <0>        -0.2193
      4 C4         -0.5230   -1.9150   -0.3986 C.2       1 <0>         0.2747
      5 N1         -0.9781   -1.6805    0.8520 N.pl3     1 <0>        -0.4865
      6 H1         -1.0673   -2.3381    1.5595 H         1 <0>         0.4367
      7 N2         -1.2929   -0.3190    0.9481 N.2       1 <0>        -0.2725
      8 O1         -0.1096   -3.1110   -0.8901 O.3       1 <0>        -0.4545
      9 C5         -0.1363   -0.5241   -2.5077 C.3       1 <0>         0.1215
     10 C6         -1.0895   -1.2495   -3.4222 C.ar      1 <0>        -0.1126
     11 C7         -1.1044   -2.6321   -3.4468 C.ar      1 <0>        -0.0313
     12 C8         -1.9766   -3.3000   -4.2836 C.ar      1 <0>        -0.1886
     13 C9         -2.8396   -2.5814   -5.1014 C.ar      1 <0>         0.2067
     14 C10        -2.8220   -1.1925   -5.0742 C.ar      1 <0>        -0.1881
     15 C11        -1.9512   -0.5310   -4.2308 C.ar      1 <0>        -0.0722
     16 N3         -3.7230   -3.2539   -5.9496 N.pl3     1 <0>        -0.5919
     17 C12        -3.8207   -4.7146   -5.8961 C.3       1 <0>         0.0953
     18 C13        -4.5131   -2.5333   -6.8487 C.ar      1 <0>         0.1586
     19 C14        -3.9197   -1.8396   -7.8960 C.ar      1 <0>        -0.1252
     20 C15        -4.7037   -1.1284   -8.7829 C.ar      1 <0>        -0.1077
     21 C16        -6.0778   -1.1057   -8.6292 C.ar      1 <0>        -0.1270
     22 C17        -6.6718   -1.7951   -7.5879 C.ar      1 <0>        -0.1072
     23 C18        -5.8943   -2.5134   -6.7009 C.ar      1 <0>        -0.1298
     24 C19         1.2580   -1.0595   -2.7085 C.2       1 <0>        -0.2279
     25 C20         2.2670   -1.0107   -1.8087 C.2       1 <0>         0.0955
     26 N4          3.3476   -1.5946   -2.3677 N.pl3     1 <0>        -0.4628
     27 N5          2.9941   -2.0179   -3.6553 N.2       1 <0>        -0.3057
     28 H2          4.2169   -1.7022   -1.9509 H         1 <0>         0.4421
     29 C21         1.7380   -1.7023   -3.8593 C.2       1 <0>         0.2798
     30 O2          1.0255   -1.9519   -4.9904 O.3       1 <0>        -0.4466
     31 C22         2.1970   -0.4104   -0.4282 C.3       1 <0>        -0.0919
     32 H3         -0.3347    2.2530   -0.3164 H         1 <0>         0.0796
     33 H4         -1.4798    1.7991   -1.6013 H         1 <0>         0.0808
     34 H5         -2.0693    2.0975    0.0515 H         1 <0>         0.0768
     35 H6          0.8156   -3.3166   -0.6981 H         1 <0>         0.3890
     36 H7         -0.1529    0.5414   -2.7368 H         1 <0>         0.0877
     37 H8         -0.4330   -3.1901   -2.8110 H         1 <0>         0.1318
     38 H9         -1.9875   -4.3798   -4.3025 H         1 <0>         0.1147
     39 H10        -3.4916   -0.6308   -5.7086 H         1 <0>         0.1158
     40 H11        -1.9402    0.5486   -4.2056 H         1 <0>         0.1153
     41 H12        -4.5841   -5.0015   -5.1729 H         1 <0>         0.0489
     42 H13        -4.0909   -5.0970   -6.8805 H         1 <0>         0.0663
     43 H14        -2.8600   -5.1323   -5.5952 H         1 <0>         0.0745
     44 H15        -2.8465   -1.8564   -8.0162 H         1 <0>         0.1240
     45 H16        -4.2430   -0.5889   -9.5973 H         1 <0>         0.1250
     46 H17        -6.6885   -0.5481   -9.3239 H         1 <0>         0.1234
     47 H18        -7.7452   -1.7750   -7.4705 H         1 <0>         0.1245
     48 H19        -6.3592   -3.0555   -5.8907 H         1 <0>         0.1216
     49 H20         1.1321   -1.2809   -5.6785 H         1 <0>         0.3935
     50 H21         1.8852   -1.1738    0.2846 H         1 <0>         0.0694
     51 H22         3.1791   -0.0302   -0.1471 H         1 <0>         0.0712
     52 H23         1.4760    0.4071   -0.4237 H         1 <0>         0.0932
@<TRIPOS>BOND
     1    1    2 1
     2    1   32 1
     3    1   33 1
     4    1   34 1
     5    2    7 2
     6    2    3 1
     7    3    4 2
     8    3    9 1
     9    4    5 1
    10    4    8 1
    11    5    6 1
    12    5    7 1
    13    8   35 1
    14    9   10 1
    15    9   36 1
    16    9   24 1
    17   10   15 ar
    18   10   11 ar
    19   11   12 ar
    20   11   37 1
    21   12   13 ar
    22   12   38 1
    23   13   14 ar
    24   13   16 1
    25   14   15 ar
    26   14   39 1
    27   15   40 1
    28   16   17 1
    29   16   18 1
    30   17   41 1
    31   17   42 1
    32   17   43 1
    33   18   23 ar
    34   18   19 ar
    35   19   20 ar
    36   19   44 1
    37   20   21 ar
    38   20   45 1
    39   21   22 ar
    40   21   46 1
    41   22   23 ar
    42   22   47 1
    43   23   48 1
    44   24   25 2
    45   24   29 1
    46   25   26 1
    47   25   31 1
    48   26   27 1
    49   26   28 1
    50   27   29 2
    51   29   30 1
    52   30   49 1
    53   31   50 1
    54   31   51 1
    55   31   52 1
@<TRIPOS>MOLECULE
ZINC22065875
   38    41     0     0     0
SMALL
USER_CHARGES

@<TRIPOS>ATOM
      1 C1         -0.0164    1.3570    0.0095 C.ar      1 <0>        -0.1133
      2 C2          1.1682    2.0912    0.0021 C.ar      1 <0>        -0.1173
      3 C3          2.3779    1.4679   -0.0132 C.ar      1 <0>        -0.1025
      4 C4          2.4369    0.0629   -0.0213 C.ar      1 <0>        -0.0551
      5 C5          3.6675   -0.6118   -0.0360 C.ar      1 <0>        -0.0677
      6 C6          3.6850   -1.9943   -0.0426 C.ar      1 <0>        -0.0266
      7 C7          2.4845   -2.7238   -0.0353 C.ar      1 <0>        -0.1002
      8 C8          1.2840   -2.0895   -0.0215 C.ar      1 <0>        -0.1042
      9 C9          1.2317   -0.6838   -0.0134 C.ar      1 <0>        -0.0477
     10 C10         0.0021   -0.0041    0.0020 C.ar      1 <0>        -0.1080
     11 C11         4.9818   -2.7130   -0.0581 C.2       1 <0>         0.1169
     12 C12         5.0133   -4.0801   -0.0701 C.2       1 <0>        -0.2307
     13 S1          6.7775   -4.3707   -0.0860 S.3       1 <0>         0.1329
     14 C13         7.2861   -2.6572   -0.0752 C.2       1 <0>         0.3064
     15 N1          6.1210   -2.0369   -0.0661 N.2       1 <0>        -0.5242
     16 N2          8.5668   -2.1210   -0.0800 N.am      1 <0>        -0.6002
     17 C14         9.6391   -2.9373   -0.0952 C.2       1 <0>         0.5736
     18 O1          9.4850   -4.1431   -0.1047 O.2       1 <0>        -0.4757
     19 C15        11.0024   -2.3665   -0.1003 C.ar      1 <0>        -0.1393
     20 C16        11.1934   -0.9793   -0.0836 C.ar      1 <0>        -0.0455
     21 C17        12.4895   -0.4953   -0.0893 C.ar      1 <0>        -0.1205
     22 C18        13.5459   -1.3881   -0.1111 C.ar      1 <0>         0.1050
     23 N3         13.3364   -2.6916   -0.1264 N.ar      1 <0>        -0.1230
     24 O2         14.4491   -3.5672   -0.1480 O.3       1 <0>        -0.5323
     25 C19        12.1207   -3.2009   -0.1160 C.ar      1 <0>         0.1420
     26 H1         -0.9634    1.8759    0.0259 H         1 <0>         0.1240
     27 H2          1.1256    3.1703    0.0083 H         1 <0>         0.1241
     28 H3          3.2880    2.0494   -0.0195 H         1 <0>         0.1274
     29 H4          4.5932   -0.0556   -0.0424 H         1 <0>         0.1371
     30 H5          2.5168   -3.8033   -0.0410 H         1 <0>         0.1269
     31 H6          0.3696   -2.6640   -0.0167 H         1 <0>         0.1316
     32 H7         -0.9244   -0.5591    0.0075 H         1 <0>         0.1281
     33 H8          4.1980   -4.7884   -0.0694 H         1 <0>         0.2022
     34 H9          8.6897   -1.1589   -0.0724 H         1 <0>         0.4269
     35 H10        10.3504   -0.3045   -0.0671 H         1 <0>         0.1596
     36 H11        12.6745    0.5687   -0.0773 H         1 <0>         0.1775
     37 H12        14.5586   -1.0127   -0.1159 H         1 <0>         0.1930
     38 H13        11.9890   -4.2728   -0.1241 H         1 <0>         0.1989
@<TRIPOS>BOND
     1    1   10 ar
     2    1    2 ar
     3    1   26 1
     4    2    3 ar
     5    2   27 1
     6    3    4 ar
     7    3   28 1
     8    4    9 ar
     9    4    5 ar
    10    5    6 ar
    11    5   29 1
    12    6    7 ar
    13    6   11 1
    14    7    8 ar
    15    7   30 1
    16    8    9 ar
    17    8   31 1
    18    9   10 ar
    19   10   32 1
    20   11   15 1
    21   11   12 2
    22   12   13 1
    23   12   33 1
    24   13   14 1
    25   14   15 2
    26   14   16 1
    27   16   17 am
    28   16   34 1
    29   17   18 2
    30   17   19 1
    31   19   25 ar
    32   19   20 ar
    33   20   21 ar
    34   20   35 1
    35   21   22 ar
    36   21   36 1
    37   22   23 ar
    38   22   37 1
    39   23   24 1
    40   23   25 ar
    41   25   38 1
@<TRIPOS>MOLECULE
ZINC03444199
   39    41     0     0     0
SMALL
USER_CHARGES

@<TRIPOS>ATOM
      1 C1         -0.0167    1.3781    0.0096 C.ar      1 <0>        -0.1408
      2 C2          1.1709    2.0855    0.0021 C.ar      1 <0>        -0.1279
      3 C3          2.3773    1.4107   -0.0130 C.ar      1 <0>        -0.0956
      4 C4          2.3960    0.0285   -0.0201 C.ar      1 <0>        -0.0385
      5 C5          1.2084   -0.6789   -0.0117 C.ar      1 <0>        -0.1304
      6 C6          0.0021   -0.0041    0.0020 C.ar      1 <0>        -0.1301
      7 C7          3.7112   -0.7071   -0.0376 C.3       1 <0>        -0.0950
      8 C8          4.5221   -0.3313    1.2047 C.3       1 <0>        -0.0999
      9 C9          5.8723   -1.0540    1.1661 C.3       1 <0>         0.1242
     10 N1          5.6327   -2.4958    1.0153 N.pl3     1 <0>        -0.9803
     11 C10         4.7897   -2.9595   -0.0951 C.3       1 <0>         0.1085
     12 C11         3.4517   -2.2154   -0.0424 C.3       1 <0>        -0.0978
     13 S1          6.3007   -3.5776    2.0764 S.o2      1 <0>         2.7159
     14 O1          6.3765   -4.8217    1.3940 O.2       1 <0>        -0.9515
     15 O2          7.4433   -2.9448    2.6360 O.2       1 <0>        -0.9548
     16 C12         5.1498   -3.7946    3.3928 C.2       1 <0>        -0.7479
     17 C13         4.1447   -4.6967    3.5079 C.2       1 <0>        -0.0156
     18 C14         3.3583   -4.6827    4.6445 C.2       1 <0>        -0.1874
     19 C15         3.6155   -3.7673    5.6105 C.2       1 <0>        -0.1451
     20 S2          5.0098   -2.8883    4.9246 S.3       1 <0>         0.1582
     21 C16         4.4830   -0.3265   -1.2747 C.2       1 <0>         0.5139
     22 O3          4.7935    0.8369   -1.4656 O.co2     1 <0>        -0.6853
     23 O4          4.7968   -1.1820   -2.0847 O.co2     1 <0>        -0.6823
     24 H1         -0.9591    1.9053    0.0259 H         1 <0>         0.1104
     25 H2          1.1563    3.1654    0.0076 H         1 <0>         0.1137
     26 H3          3.3051    1.9634   -0.0196 H         1 <0>         0.1343
     27 H4          1.2231   -1.7588   -0.0176 H         1 <0>         0.1194
     28 H5         -0.9258   -0.5567    0.0082 H         1 <0>         0.1114
     29 H6          4.6866    0.7462    1.2196 H         1 <0>         0.0788
     30 H7          3.9757   -0.6288    2.0996 H         1 <0>         0.0533
     31 H8          6.4574   -0.6905    0.3214 H         1 <0>         0.0851
     32 H9          6.4127   -0.8686    2.0944 H         1 <0>         0.0821
     33 H10         5.2865   -2.7513   -1.0427 H         1 <0>         0.1245
     34 H11         4.6158   -4.0312    0.0010 H         1 <0>         0.0722
     35 H12         2.9153   -2.4951    0.8643 H         1 <0>         0.0456
     36 H13         2.8542   -2.4789   -0.9151 H         1 <0>         0.0736
     37 H14         3.9609   -5.4155    2.7230 H         1 <0>         0.1463
     38 H15         2.5509   -5.3904    4.7611 H         1 <0>         0.1418
     39 H16         3.1105   -3.6124    6.5525 H         1 <0>         0.1929
@<TRIPOS>BOND
     1    1    6 ar
     2    1    2 ar
     3    1   24 1
     4    2    3 ar
     5    2   25 1
     6    3    4 ar
     7    3   26 1
     8    4    5 ar
     9    4    7 1
    10    5    6 ar
    11    5   27 1
    12    6   28 1
    13    7   12 1
    14    7    8 1
    15    7   21 1
    16    8    9 1
    17    8   29 1
    18    8   30 1
    19    9   10 1
    20    9   31 1
    21    9   32 1
    22   10   11 1
    23   10   13 1
    24   11   12 1
    25   11   33 1
    26   11   34 1
    27   12   35 1
    28   12   36 1
    29   13   14 2
    30   13   15 2
    31   13   16 1
    32   16   20 1
    33   16   17 2
    34   17   18 1
    35   17   37 1
    36   18   19 2
    37   18   38 1
    38   19   20 1
    39   19   39 1
    40   21   22 2
    41   21   23 1
@<TRIPOS>MOLECULE
ZINC52993055
   43    45     0     0     0
SMALL
USER_CHARGES

@<TRIPOS>ATOM
      1 C1         -0.0187    1.5258    0.0104 C.3       1 <0>        -0.1485
      2 C2          0.0021   -0.0041    0.0020 C.3       1 <0>        -0.0322
      3 C3          0.7309   -0.5033    1.2229 C.2       1 <0>         0.0644
      4 N1          0.2399   -0.7927    2.4020 N.2       1 <0>        -0.4888
      5 C4          1.0120   -1.2229    3.3799 C.2       1 <0>         0.0586
      6 C5          2.3359   -1.3512    3.1075 C.2       1 <0>        -0.2292
      7 S1          2.3723   -0.8311    1.3996 S.3       1 <0>         0.0657
      8 C6          0.4511   -1.5565    4.7382 C.3       1 <0>         0.2063
      9 N2          0.3683   -0.3368    5.5454 N.pl3     1 <0>        -0.6303
     10 C7          1.4994    0.0811    6.3847 C.3       1 <0>         0.1357
     11 C8          0.9398    0.5014    7.7502 C.3       1 <0>        -0.1351
     12 C9          0.0251    1.7108    7.5573 C.3       1 <0>        -0.0343
     13 C10        -0.9893    1.4378    6.4784 C.ar      1 <0>        -0.2123
     14 C11        -0.7872    0.4522    5.5249 C.ar      1 <0>         0.2352
     15 C12        -1.7397    0.2317    4.5354 C.ar      1 <0>        -0.2683
     16 C13        -2.8902    0.9948    4.4964 C.ar      1 <0>        -0.0448
     17 C14        -3.0974    1.9805    5.4417 C.ar      1 <0>        -0.2924
     18 C15        -2.1522    2.2004    6.4395 C.ar      1 <0>         0.3098
     19 N3         -2.3636    3.1977    7.3941 N.2       1 <0>        -1.0953
     20 S2         -3.7472    4.1066    7.3496 S.o2      1 <0>         2.5233
     21 O1         -3.6734    4.8195    6.1225 O.2       1 <0>        -1.0324
     22 O2         -4.7978    3.1796    7.5867 O.2       1 <0>        -1.0327
     23 C16        -3.5975    5.2525    8.7478 C.3       1 <0>        -0.6384
     24 H1          1.0039    1.9031    0.0027 H         1 <0>         0.0552
     25 H2         -0.5459    1.8868   -0.8726 H         1 <0>         0.0673
     26 H3         -0.5289    1.8773    0.9072 H         1 <0>         0.0686
     27 H4         -1.0205   -0.3814    0.0098 H         1 <0>         0.0963
     28 H5          0.5123   -0.3556   -0.8948 H         1 <0>         0.0847
     29 H6          3.1426   -1.6803    3.7456 H         1 <0>         0.1900
     30 H7         -0.5446   -1.9854    4.6248 H         1 <0>         0.0876
     31 H8          1.1026   -2.2765    5.2335 H         1 <0>         0.0811
     32 H9          2.1930   -0.7504    6.5101 H         1 <0>         0.0624
     33 H10         2.0120    0.9236    5.9207 H         1 <0>         0.0468
     34 H11         0.3702   -0.3223    8.1807 H         1 <0>         0.0621
     35 H12         1.7612    0.7670    8.4155 H         1 <0>         0.0612
     36 H13        -0.4922    1.9241    8.4927 H         1 <0>         0.0742
     37 H14         0.6260    2.5757    7.2762 H         1 <0>         0.0470
     38 H15        -1.5793   -0.5387    3.7957 H         1 <0>         0.1185
     39 H16        -3.6276    0.8211    3.7267 H         1 <0>         0.0944
     40 H17        -3.9976    2.5764    5.4112 H         1 <0>         0.0943
     41 H18        -2.7068    5.8675    8.6198 H         1 <0>         0.1132
     42 H19        -4.4785    5.8930    8.7886 H         1 <0>         0.0981
     43 H20        -3.5173    4.6854    9.6753 H         1 <0>         0.1134
@<TRIPOS>BOND
     1    1    2 1
     2    1   24 1
     3    1   25 1
     4    1   26 1
     5    2    3 1
     6    2   27 1
     7    2   28 1
     8    3    7 1
     9    3    4 2
    10    4    5 1
    11    5    6 2
    12    5    8 1
    13    6    7 1
    14    6   29 1
    15    8    9 1
    16    8   30 1
    17    8   31 1
    18    9   14 1
    19    9   10 1
    20   10   11 1
    21   10   32 1
    22   10   33 1
    23   11   12 1
    24   11   34 1
    25   11   35 1
    26   12   13 1
    27   12   36 1
    28   12   37 1
    29   13   18 ar
    30   13   14 ar
    31   14   15 ar
    32   15   16 ar
    33   15   38 1
    34   16   17 ar
    35   16   39 1
    36   17   18 ar
    37   17   40 1
    38   18   19 1
    39   19   20 1
    40   20   21 2
    41   20   22 2
    42   20   23 1
    43   23   41 1
    44   23   42 1
    45   23   43 1
@<TRIPOS>MOLECULE
ZINC62916321
   41    42     0     0     0
SMALL
USER_CHARGES

@<TRIPOS>ATOM
      1 C1         -1.0362   -6.4672   -4.4224 C.3       1 <0>        -0.1465
      2 C2         -0.3258   -5.2616   -3.8037 C.3       1 <0>        -0.1328
      3 C3         -0.6501   -5.1898   -2.3102 C.3       1 <0>         0.0979
      4 N1         -0.0674   -3.9717   -1.7420 N.pl3     1 <0>        -0.4015
      5 C4          1.1375   -3.8843   -1.1259 C.2       1 <0>         0.0484
      6 C5          1.3369   -2.6027   -0.7336 C.2       1 <0>        -0.1771
      7 C6          0.2168   -1.8577   -1.1170 C.2       1 <0>        -0.1223
      8 C7         -0.6491   -2.7243   -1.7498 C.2       1 <0>        -0.0251
      9 C8         -1.9542   -2.3801   -2.3240 C.2       1 <0>         0.5960
     10 O1         -2.6791   -3.2568   -2.7562 O.2       1 <0>        -0.5590
     11 N2         -2.3505   -1.0929   -2.3729 N.am      1 <0>        -0.5907
     12 C9         -1.5317    0.0732   -1.9947 C.3       1 <0>         0.0939
     13 C10        -2.1437    1.2593   -2.7811 C.3       1 <0>        -0.1037
     14 C11        -3.6571    0.9217   -2.7261 C.3       1 <0>        -0.1404
     15 C12        -3.6690   -0.6186   -2.8182 C.3       1 <0>         0.1388
     16 C13        -4.3928    1.5377   -3.9178 C.3       1 <0>        -0.0891
     17 C14        -4.1331    3.0451   -3.9536 C.3       1 <0>        -0.1422
     18 C15        -4.2605    1.3878   -1.4262 C.2       1 <0>         0.5107
     19 O2         -5.4545    1.6252   -1.3588 O.co2     1 <0>        -0.6904
     20 O3         -3.5547    1.5275   -0.4419 O.co2     1 <0>        -0.6888
     21 Br1         2.8590   -1.9393    0.1713 Br        1 <0>        -0.0347
     22 H1         -0.6333   -7.3852   -3.9947 H         1 <0>         0.0542
     23 H2         -2.1041   -6.4067   -4.2127 H         1 <0>         0.0625
     24 H3         -0.8772   -6.4685   -5.5008 H         1 <0>         0.0594
     25 H4          0.7509   -5.3665   -3.9370 H         1 <0>         0.0637
     26 H5         -0.6653   -4.3490   -4.2935 H         1 <0>         0.0725
     27 H6         -1.7314   -5.1732   -2.1736 H         1 <0>         0.1122
     28 H7         -0.2335   -6.0615   -1.8056 H         1 <0>         0.0890
     29 H8          1.8254   -4.7026   -0.9724 H         1 <0>         0.1748
     30 H9          0.0614   -0.8018   -0.9520 H         1 <0>         0.1676
     31 H10        -1.6007    0.2534   -0.9219 H         1 <0>         0.0943
     32 H11        -0.4934   -0.0811   -2.2883 H         1 <0>         0.0730
     33 H12        -1.9364    2.2066   -2.2832 H         1 <0>         0.0848
     34 H13        -1.7837    1.2734   -3.8098 H         1 <0>         0.0586
     35 H14        -3.8462   -0.9289   -3.8480 H         1 <0>         0.0618
     36 H15        -4.4464   -1.0209   -2.1687 H         1 <0>         0.0655
     37 H16        -4.0319    1.0848   -4.8412 H         1 <0>         0.0444
     38 H17        -5.4628    1.3557   -3.8178 H         1 <0>         0.0700
     39 H18        -4.4098    3.4844   -2.9952 H         1 <0>         0.0614
     40 H19        -3.0756    3.2272   -4.1450 H         1 <0>         0.0453
     41 H20        -4.7290    3.4977   -4.7463 H         1 <0>         0.0435
@<TRIPOS>BOND
     1    1    2 1
     2    1   22 1
     3    1   23 1
     4    1   24 1
     5    2    3 1
     6    2   25 1
     7    2   26 1
     8    3    4 1
     9    3   27 1
    10    3   28 1
    11    4    8 1
    12    4    5 1
    13    5    6 2
    14    5   29 1
    15    6    7 1
    16    6   21 1
    17    7    8 2
    18    7   30 1
    19    8    9 1
    20    9   10 2
    21    9   11 am
    22   11   15 1
    23   11   12 1
    24   12   13 1
    25   12   31 1
    26   12   32 1
    27   13   14 1
    28   13   33 1
    29   13   34 1
    30   14   15 1
    31   14   16 1
    32   14   18 1
    33   15   35 1
    34   15   36 1
    35   16   17 1
    36   16   37 1
    37   16   38 1
    38   17   39 1
    39   17   40 1
    40   17   41 1
    41   18   19 2
    42   18   20 1
@<TRIPOS>MOLECULE
ZINC66578221
   38    40     0     0     0
SMALL
USER_CHARGES

@<TRIPOS>ATOM
      1 C1         -0.0187    1.5258    0.0104 C.3       1 <0>        -0.1647
      2 C2          0.0021   -0.0041    0.0020 C.3       1 <0>         0.1250
      3 N1         -1.3723   -0.5112    0.0124 N.pl3     1 <0>        -0.3731
      4 C3         -1.9075   -1.3725   -0.8779 C.2       1 <0>         0.1617
      5 C4         -3.1944   -1.5889   -0.5201 C.2       1 <0>        -0.7510
      6 C5         -3.4546   -0.8340    0.6282 C.2       1 <0>         0.1297
      7 N2         -2.3613   -0.1922    0.9518 N.2       1 <0>        -0.3057
      8 S1         -4.3402   -2.6360   -1.3541 S.o2      1 <0>         2.6368
      9 O1         -5.6384   -2.1614   -1.0243 O.2       1 <0>        -1.0327
     10 O2         -3.8874   -2.7457   -2.6965 O.2       1 <0>        -1.0383
     11 N3         -4.2031   -4.1440   -0.6836 N.2       1 <0>        -1.0950
     12 C6         -4.9997   -5.1915   -1.1517 C.ar      1 <0>         0.2779
     13 C7         -5.9035   -4.9713   -2.1837 C.ar      1 <0>        -0.2457
     14 C8         -6.6891   -6.0092   -2.6444 C.ar      1 <0>        -0.0710
     15 C9         -6.5774   -7.2667   -2.0794 C.ar      1 <0>        -0.1775
     16 C10        -5.6793   -7.4891   -1.0520 C.ar      1 <0>        -0.0445
     17 C11        -4.8860   -6.4568   -0.5905 C.ar      1 <0>        -0.1521
     18 C12        -5.5618   -8.8607   -0.4388 C.3       1 <0>         0.0843
     19 S2         -7.2153   -9.5225    0.0441 S.3       1 <0>        -0.2626
     20 C13        -6.9256  -11.3311   -0.0581 C.3       1 <0>        -0.0843
     21 C14        -6.0744  -11.5833   -1.3138 C.3       1 <0>        -0.0840
     22 S3         -5.0672  -10.1120   -1.6922 S.3       1 <0>        -0.2687
     23 H1          1.0039    1.9031    0.0027 H         1 <0>         0.0738
     24 H2         -0.5459    1.8868   -0.8726 H         1 <0>         0.0606
     25 H3         -0.5289    1.8773    0.9072 H         1 <0>         0.0705
     26 H4          0.5123   -0.3556   -0.8948 H         1 <0>         0.0970
     27 H5          0.5293   -0.3651    0.8851 H         1 <0>         0.0858
     28 H6         -1.3997   -1.8104   -1.7246 H         1 <0>         0.1859
     29 H7         -4.3943   -0.7920    1.1590 H         1 <0>         0.1929
     30 H8         -5.9917   -3.9895   -2.6248 H         1 <0>         0.0997
     31 H9         -7.3919   -5.8388   -3.4466 H         1 <0>         0.1066
     32 H10        -7.1933   -8.0766   -2.4414 H         1 <0>         0.1132
     33 H11        -4.1813   -6.6324    0.2088 H         1 <0>         0.1137
     34 H12        -4.8745   -8.8551    0.4072 H         1 <0>         0.1210
     35 H13        -6.3898  -11.6718    0.8279 H         1 <0>         0.0927
     36 H14        -7.8775  -11.8552   -0.1436 H         1 <0>         0.1192
     37 H15        -5.4179  -12.4359   -1.1402 H         1 <0>         0.1018
     38 H16        -6.7300  -11.7993   -2.1574 H         1 <0>         0.1010
@<TRIPOS>BOND
     1    1    2 1
     2    1   23 1
     3    1   24 1
     4    1   25 1
     5    2    3 1
     6    2   26 1
     7    2   27 1
     8    3    7 1
     9    3    4 1
    10    4    5 2
    11    4   28 1
    12    5    6 1
    13    5    8 1
    14    6    7 2
    15    6   29 1
    16    8    9 2
    17    8   10 2
    18    8   11 1
    19   11   12 1
    20   12   17 ar
    21   12   13 ar
    22   13   14 ar
    23   13   30 1
    24   14   15 ar
    25   14   31 1
    26   15   16 ar
    27   15   32 1
    28   16   17 ar
    29   16   18 1
    30   17   33 1
    31   18   22 1
    32   18   19 1
    33   18   34 1
    34   19   20 1
    35   20   21 1
    36   20   35 1
    37   20   36 1
    38   21   22 1
    39   21   37 1
    40   21   38 1
@<TRIPOS>MOLECULE
ZINC13447887
   49    51     0     0     0
SMALL
USER_CHARGES
1-(3-ethoxy-4-propoxy-benzoyl)indoline-5-carboxylic acid
@<TRIPOS>ATOM
      1 C1         10.5909    2.4443    0.4469 C.3       1 <0>        -0.1501
      2 C2          9.6460    3.6474    0.4696 C.3       1 <0>        -0.1231
      3 C3          8.1994    3.1621    0.3572 C.3       1 <0>         0.0545
      4 O1          7.3170    4.2858    0.3784 O.3       1 <0>        -0.3008
      5 C4          5.9870    4.0271    0.2869 C.ar      1 <0>         0.1285
      6 C5          5.5421    2.7163    0.1795 C.ar      1 <0>        -0.1828
      7 C6          4.1934    2.4481    0.0927 C.ar      1 <0>        -0.1190
      8 C7          3.2705    3.4972    0.1010 C.ar      1 <0>        -0.1279
      9 C8          3.7182    4.8167    0.2092 C.ar      1 <0>        -0.1129
     10 C9          5.0714    5.0782    0.3017 C.ar      1 <0>         0.0937
     11 O2          5.5104    6.3611    0.4066 O.3       1 <0>        -0.3037
     12 C10         4.5169    7.3882    0.4150 C.3       1 <0>         0.0492
     13 C11         5.1960    8.7537    0.5386 C.3       1 <0>        -0.1495
     14 C12         1.8261    3.2122    0.0019 C.2       1 <0>         0.5664
     15 O3          1.0341    4.1249   -0.1323 O.2       1 <0>        -0.5162
     16 N1          1.3847    1.9401    0.0601 N.am      1 <0>        -0.5418
     17 C13         2.2453    0.7553    0.1046 C.3       1 <0>         0.0908
     18 C14         1.2820   -0.4415    0.1636 C.3       1 <0>        -0.0840
     19 C15        -0.0964    0.1811    0.1473 C.ar      1 <0>        -0.1535
     20 C16         0.0445    1.5620    0.0867 C.ar      1 <0>         0.1285
     21 C17        -1.1007    2.3658    0.0609 C.ar      1 <0>        -0.1418
     22 C18        -2.3513    1.7985    0.0950 C.ar      1 <0>        -0.0532
     23 C19        -2.4888    0.4087    0.1559 C.ar      1 <0>        -0.1266
     24 C20        -1.3459   -0.3959    0.1818 C.ar      1 <0>        -0.0469
     25 C21        -3.8294   -0.2042    0.1922 C.2       1 <0>         0.4922
     26 O4         -3.9438   -1.4127    0.2448 O.co2     1 <0>        -0.6333
     27 H1         10.3621    1.7867    1.2856 H         1 <0>         0.0580
     28 H2         10.4622    1.8988   -0.4880 H         1 <0>         0.0579
     29 H3         11.6215    2.7900    0.5269 H         1 <0>         0.0644
     30 H4          9.8749    4.3049   -0.3692 H         1 <0>         0.0738
     31 H5          9.7747    4.1929    1.4044 H         1 <0>         0.0739
     32 H6          7.9706    2.5046    1.1959 H         1 <0>         0.0640
     33 H7          8.0708    2.6166   -0.5777 H         1 <0>         0.0639
     34 H8          6.2546    1.9048    0.1684 H         1 <0>         0.1415
     35 H9          3.8498    1.4273    0.0140 H         1 <0>         0.1678
     36 H10         3.0077    5.6300    0.2208 H         1 <0>         0.1489
     37 H11         3.9460    7.3490   -0.5127 H         1 <0>         0.0644
     38 H12         3.8462    7.2380    1.2610 H         1 <0>         0.0640
     39 H13         4.4381    9.5371    0.5449 H         1 <0>         0.0790
     40 H14         5.7669    8.7929    1.4663 H         1 <0>         0.0657
     41 H15         5.8666    8.9038   -0.3074 H         1 <0>         0.0657
     42 H16         2.8745    0.7783    0.9943 H         1 <0>         0.0915
     43 H17         2.8608    0.7012   -0.7934 H         1 <0>         0.0911
     44 H18         1.4196   -1.0839   -0.7062 H         1 <0>         0.0900
     45 H19         1.4334   -1.0068    1.0831 H         1 <0>         0.0900
     46 H20        -1.0005    3.4402    0.0142 H         1 <0>         0.1339
     47 H21        -3.2294    2.4269    0.0743 H         1 <0>         0.1372
     48 H22        -1.4431   -1.4705    0.2293 H         1 <0>         0.1307
     49 O5         -4.9278    0.5760    0.1670 O.co2     1 <0>        -0.7542
@<TRIPOS>BOND
     1    1    2 1
     2    1   27 1
     3    1   28 1
     4    1   29 1
     5    2    3 1
     6    2   30 1
     7    2   31 1
     8    3    4 1
     9    3   32 1
    10    3   33 1
    11    4    5 1
    12    5   10 ar
    13    5    6 ar
    14    6    7 ar
    15    6   34 1
    16    7    8 ar
    17    7   35 1
    18    8    9 ar
    19    8   14 1
    20    9   10 ar
    21    9   36 1
    22   10   11 1
    23   11   12 1
    24   12   13 1
    25   12   37 1
    26   12   38 1
    27   13   39 1
    28   13   40 1
    29   13   41 1
    30   14   15 2
    31   14   16 am
    32   16   20 1
    33   16   17 1
    34   17   18 1
    35   17   42 1
    36   17   43 1
    37   18   19 1
    38   18   44 1
    39   18   45 1
    40   19   24 ar
    41   19   20 ar
    42   20   21 ar
    43   21   22 ar
    44   21   46 1
    45   22   23 ar
    46   22   47 1
    47   23   24 ar
    48   23   25 1
    49   24   48 1
    50   25   26 2
    51   25   49 1
@<TRIPOS>MOLECULE
ZINC39380172
   51    53     0     0     0
SMALL
USER_CHARGES

@<TRIPOS>ATOM
      1 C1         -0.0184    1.5028    0.0103 C.3       1 <0>        -0.1055
      2 C2          0.0021   -0.0041    0.0020 C.ar      1 <0>        -0.0852
      3 C3          0.0057   -0.6888   -1.1991 C.ar      1 <0>        -0.1379
      4 C4          0.0245   -2.0707   -1.2067 C.ar      1 <0>        -0.1153
      5 C5          0.0400   -2.7685   -0.0132 C.ar      1 <0>        -0.1060
      6 C6          0.0373   -2.0840    1.1875 C.ar      1 <0>         0.0205
      7 C7          0.0229   -0.7015    1.1951 C.ar      1 <0>        -0.0879
      8 C8          0.0538   -2.8445    2.4885 C.3       1 <0>         0.0652
      9 H1          0.0490   -2.1429    3.3226 H         1 <0>         0.0628
     10 C9          1.3039   -3.7129    2.5576 C.3       1 <0>        -0.2303
     11 H2          1.3336   -4.3176    1.6512 H         1 <0>         0.1112
     12 C10         1.1472   -4.6511    3.7352 C.2       1 <0>         0.4940
     13 N1          2.1884   -4.7909    4.5398 N.2       1 <0>        -0.6178
     14 C11         3.2951   -4.0707    4.3743 C.2       1 <0>         0.4389
     15 N2          3.4440   -3.0837    3.5027 N.2       1 <0>        -0.6968
     16 C12         2.5254   -2.8194    2.5581 C.2       1 <0>         0.5334
     17 O1          2.6576   -1.9150    1.7559 O.2       1 <0>        -0.4791
     18 S1          4.6751   -4.4609    5.3981 S.3       1 <0>        -0.0144
     19 C13         5.9540   -3.2843    4.8780 C.3       1 <0>        -0.0780
     20 C14         7.2052   -3.5125    5.6863 C.2       1 <0>        -0.1400
     21 C15         8.2989   -3.9282    5.0972 C.2       1 <0>        -0.1712
     22 N3         -0.0069   -5.2414    3.9758 N.2       1 <0>        -0.5996
     23 C16        -1.1155   -4.8896    3.3453 C.2       1 <0>         0.2925
     24 C17        -1.1632   -3.7380    2.5696 C.2       1 <0>        -0.3708
     25 C18        -2.3115   -3.4130    1.8737 C.2       1 <0>         0.4754
     26 O2         -2.3492   -2.2976    1.1202 O.3       1 <0>        -0.5951
     27 O3         -3.3931   -4.2116    1.9488 O.3       1 <0>        -0.3245
     28 C19        -4.5458   -3.8146    1.2034 C.3       1 <0>         0.0903
     29 C20        -5.6478   -4.8219    1.4079 C.2       1 <0>        -0.1486
     30 C21        -6.8703   -4.4160    1.6462 C.2       1 <0>        -0.1819
     31 C22        -2.3471   -5.7485    3.4736 C.3       1 <0>        -0.1053
     32 H3          1.0042    1.8801    0.0026 H         1 <0>         0.0619
     33 H4         -0.5455    1.8639   -0.8728 H         1 <0>         0.0572
     34 H5         -0.5286    1.8543    0.9071 H         1 <0>         0.0581
     35 H6         -0.0064   -0.1437   -2.1314 H         1 <0>         0.1049
     36 H7          0.0266   -2.6056   -2.1449 H         1 <0>         0.1047
     37 H8          0.0540   -3.8484   -0.0191 H         1 <0>         0.0977
     38 H9          0.0246   -0.1666    2.1333 H         1 <0>         0.0999
     39 H10         6.1732   -3.4299    3.8202 H         1 <0>         0.0956
     40 H11         5.5983   -2.2665    5.0385 H         1 <0>         0.1030
     41 H12         7.2002   -3.3333    6.7513 H         1 <0>         0.1176
     42 H13         8.3039   -4.1074    4.0321 H         1 <0>         0.0995
     43 H14         9.1956   -4.0918    5.6765 H         1 <0>         0.1027
     44 H15        -4.8804   -2.8354    1.5458 H         1 <0>         0.0681
     45 H16        -4.2933   -3.7623    0.1443 H         1 <0>         0.0731
     46 H17        -5.4297   -5.8785    1.3582 H         1 <0>         0.1175
     47 H18        -7.0884   -3.3594    1.6959 H         1 <0>         0.0977
     48 H19        -7.6601   -5.1379    1.7928 H         1 <0>         0.1039
     49 H20        -2.1300   -6.6012    4.1169 H         1 <0>         0.0715
     50 H21        -3.1557   -5.1614    3.9091 H         1 <0>         0.0844
     51 H22        -2.6465   -6.1041    2.4877 H         1 <0>         0.0880
@<TRIPOS>BOND
     1    1    2 1
     2    1   32 1
     3    1   33 1
     4    1   34 1
     5    2    7 ar
     6    2    3 ar
     7    3    4 ar
     8    3   35 1
     9    4    5 ar
    10    4   36 1
    11    5    6 ar
    12    5   37 1
    13    6    7 ar
    14    6    8 1
    15    7   38 1
    16    8    9 1
    17    8   24 1
    18    8   10 1
    19   10   11 1
    20   10   16 1
    21   10   12 1
    22   12   13 2
    23   12   22 1
    24   13   14 1
    25   14   15 2
    26   14   18 1
    27   15   16 1
    28   16   17 2
    29   18   19 1
    30   19   20 1
    31   19   39 1
    32   19   40 1
    33   20   21 2
    34   20   41 1
    35   21   42 1
    36   21   43 1
    37   22   23 2
    38   23   24 1
    39   23   31 1
    40   24   25 2
    41   25   26 1
    42   25   27 1
    43   27   28 1
    44   28   29 1
    45   28   44 1
    46   28   45 1
    47   29   30 2
    48   29   46 1
    49   30   47 1
    50   30   48 1
    51   31   49 1
    52   31   50 1
    53   31   51 1
@<TRIPOS>MOLECULE
ZINC54738268
   45    46     0     0     0
SMALL
USER_CHARGES

@<TRIPOS>ATOM
      1 C1          0.2377    1.4839    0.0006 C.3       1 <0>        -0.1174
      2 C2          0.2150   -0.0229   -0.0040 C.ar      1 <0>        -0.0519
      3 C3          0.2212   -0.7103   -1.2040 C.ar      1 <0>        -0.1571
      4 C4          0.2003   -2.0926   -1.2116 C.ar      1 <0>        -0.0821
      5 C5          0.1728   -2.7908   -0.0196 C.ar      1 <0>        -0.1248
      6 C6          0.1665   -2.1036    1.1853 C.ar      1 <0>         0.1365
      7 C7          0.1936   -0.7164    1.1903 C.ar      1 <0>        -0.2045
      8 O1          0.1395   -2.7881    2.3590 O.3       1 <0>        -0.3120
      9 C8          0.1346   -2.0151    3.5609 C.3       1 <0>         0.0708
     10 C9          0.1032   -2.9522    4.7699 C.3       1 <0>        -0.1110
     11 C10         0.0980   -2.1370    6.0373 C.2       1 <0>         0.4493
     12 O2          0.1175   -0.9302    5.9796 O.2       1 <0>        -0.4955
     13 O3          0.0718   -2.7515    7.2305 O.3       1 <0>        -0.2812
     14 C11         0.1713   -1.9819    8.3474 C.ar      1 <0>        -0.0459
     15 C12        -0.9282   -1.2640    8.7948 C.ar      1 <0>        -0.0696
     16 C13        -0.8281   -0.4824    9.9287 C.ar      1 <0>        -0.1747
     17 C14         0.3738   -0.4153   10.6215 C.ar      1 <0>         0.2930
     18 C15         1.4739   -1.1347   10.1731 C.ar      1 <0>        -0.2471
     19 C16         1.3706   -1.9197    9.0417 C.ar      1 <0>        -0.0566
     20 N1          0.4762    0.3765   11.7698 N.2       1 <0>        -1.0940
     21 S1          1.9095    0.4561   12.5956 S.o2      1 <0>         2.5255
     22 O4          2.1273   -0.8648   13.0719 O.2       1 <0>        -1.0287
     23 O5          2.8197    1.0571   11.6848 O.2       1 <0>        -1.0285
     24 C17         1.5852    1.5759   13.9853 C.3       1 <0>        -0.6365
     25 C18         0.1491   -4.2976   -0.0287 C.3       1 <0>        -0.1042
     26 H1          1.2707    1.8316    0.0110 H         1 <0>         0.0725
     27 H2         -0.2624    1.8575   -0.8929 H         1 <0>         0.0673
     28 H3         -0.2787    1.8524    0.8869 H         1 <0>         0.0681
     29 H4          0.2420   -0.1663   -2.1368 H         1 <0>         0.1216
     30 H5          0.2052   -2.6271   -2.1500 H         1 <0>         0.1272
     31 H6          0.1936   -0.1792    2.1272 H         1 <0>         0.1316
     32 H7          1.0337   -1.4002    3.6011 H         1 <0>         0.0742
     33 H8         -0.7459   -1.3727    3.5761 H         1 <0>         0.0740
     34 H9         -0.7959   -3.5671    4.7297 H         1 <0>         0.1152
     35 H10         0.9836   -3.5946    4.7547 H         1 <0>         0.1156
     36 H11        -1.8627   -1.3163    8.2559 H         1 <0>         0.1087
     37 H12        -1.6840    0.0770   10.2764 H         1 <0>         0.1192
     38 H13         2.4089   -1.0829   10.7111 H         1 <0>         0.1099
     39 H14         2.2249   -2.4821    8.6950 H         1 <0>         0.1097
     40 H15         0.7861    1.1663   14.6032 H         1 <0>         0.1157
     41 H16         2.4895    1.6826   14.5846 H         1 <0>         0.1020
     42 H17         1.2853    2.5517   13.6033 H         1 <0>         0.1156
     43 H18         1.1708   -4.6771   -0.0166 H         1 <0>         0.0667
     44 H19        -0.3828   -4.6579    0.8519 H         1 <0>         0.0704
     45 H20        -0.3580   -4.6476   -0.9278 H         1 <0>         0.0626
@<TRIPOS>BOND
     1    1    2 1
     2    1   26 1
     3    1   27 1
     4    1   28 1
     5    2    7 ar
     6    2    3 ar
     7    3    4 ar
     8    3   29 1
     9    4    5 ar
    10    4   30 1
    11    5    6 ar
    12    5   25 1
    13    6    7 ar
    14    6    8 1
    15    7   31 1
    16    8    9 1
    17    9   10 1
    18    9   32 1
    19    9   33 1
    20   10   11 1
    21   10   34 1
    22   10   35 1
    23   11   12 2
    24   11   13 1
    25   13   14 1
    26   14   19 ar
    27   14   15 ar
    28   15   16 ar
    29   15   36 1
    30   16   17 ar
    31   16   37 1
    32   17   18 ar
    33   17   20 1
    34   18   19 ar
    35   18   38 1
    36   19   39 1
    37   20   21 1
    38   21   22 2
    39   21   23 2
    40   21   24 1
    41   24   40 1
    42   24   41 1
    43   24   42 1
    44   25   43 1
    45   25   44 1
    46   25   45 1
@<TRIPOS>MOLECULE
ZINC62142565
   41    43     0     0     0
SMALL
USER_CHARGES

@<TRIPOS>ATOM
      1 C1         -0.0173    1.4248    0.0099 C.3       1 <0>         0.0373
      2 O1          0.0021   -0.0041    0.0020 O.3       1 <0>        -0.3571
      3 C2         -1.1902   -0.6322    0.0100 C.2       1 <0>         0.5178
      4 O2         -2.2182    0.0157    0.0233 O.2       1 <0>        -0.5373
      5 C3         -1.2474   -2.1048    0.0027 C.ar      1 <0>        -0.2502
      6 C4         -0.0652   -2.8520   -0.0068 C.ar      1 <0>        -0.0167
      7 C5         -0.1219   -4.2219   -0.0131 C.ar      1 <0>        -0.1962
      8 C6         -1.3546   -4.8693   -0.0107 C.ar      1 <0>         0.3185
      9 C7         -2.5335   -4.1284   -0.0013 C.ar      1 <0>        -0.2806
     10 C8         -2.4839   -2.7583    0.0110 C.ar      1 <0>         0.0103
     11 N1         -1.4086   -6.2583   -0.0180 N.2       1 <0>        -1.0745
     12 S1         -2.8737   -7.0301   -0.0151 S.o2      1 <0>         2.6014
     13 O3         -3.4836   -6.7389    1.2349 O.2       1 <0>        -1.0189
     14 O4         -3.4959   -6.7252   -1.2557 O.2       1 <0>        -1.0186
     15 C9         -2.5502   -8.7621   -0.0262 C.ar      1 <0>        -0.5867
     16 C10        -2.4241   -9.4311   -1.2313 C.ar      1 <0>        -0.0356
     17 C11        -2.1714  -10.7865   -1.2483 C.ar      1 <0>        -0.0855
     18 C12        -2.0421  -11.4852   -0.0437 C.ar      1 <0>        -0.1318
     19 C13        -2.1704  -10.8019    1.1698 C.ar      1 <0>        -0.0963
     20 C14        -2.4179   -9.4454    1.1701 C.ar      1 <0>        -0.0374
     21 C15        -1.7728  -12.9320   -0.0530 C.2       1 <0>         0.4267
     22 O5         -1.6625  -13.5213   -1.1069 O.2       1 <0>        -0.4533
     23 C16        -1.6342  -13.6810    1.2473 C.3       1 <0>        -0.2211
     24 C17        -0.4933  -14.6941    1.3608 C.3       1 <0>        -0.1469
     25 C18        -1.9385  -15.1803    1.2348 C.3       1 <0>        -0.1505
     26 H1          1.0053    1.8021    0.0021 H         1 <0>         0.0943
     27 H2         -0.5445    1.7859   -0.8732 H         1 <0>         0.0544
     28 H3         -0.5275    1.7763    0.9067 H         1 <0>         0.0544
     29 H4          0.8913   -2.3506   -0.0094 H         1 <0>         0.1216
     30 H5          0.7906   -4.7996   -0.0204 H         1 <0>         0.1220
     31 H6         -3.4881   -4.6336    0.0007 H         1 <0>         0.1065
     32 H7         -3.3986   -2.1842    0.0227 H         1 <0>         0.1185
     33 H8         -2.5243   -8.8902   -2.1606 H         1 <0>         0.1449
     34 H9         -2.0740  -11.3073   -2.1894 H         1 <0>         0.1384
     35 H10        -2.0721  -11.3346    2.1041 H         1 <0>         0.1372
     36 H11        -2.5129   -8.9155    2.1064 H         1 <0>         0.1450
     37 H12        -1.9011  -13.1207    2.1433 H         1 <0>         0.1291
     38 H13         0.1569  -14.8189    0.4949 H         1 <0>         0.1018
     39 H14        -0.0093  -14.8004    2.3316 H         1 <0>         0.1063
     40 H15        -2.4053  -15.6065    2.1228 H         1 <0>         0.1048
     41 H16        -2.2391  -15.6250    0.2861 H         1 <0>         0.1040
@<TRIPOS>BOND
     1    1    2 1
     2    1   26 1
     3    1   27 1
     4    1   28 1
     5    2    3 1
     6    3    4 2
     7    3    5 1
     8    5   10 ar
     9    5    6 ar
    10    6    7 ar
    11    6   29 1
    12    7    8 ar
    13    7   30 1
    14    8    9 ar
    15    8   11 1
    16    9   10 ar
    17    9   31 1
    18   10   32 1
    19   11   12 1
    20   12   13 2
    21   12   14 2
    22   12   15 1
    23   15   20 ar
    24   15   16 ar
    25   16   17 ar
    26   16   33 1
    27   17   18 ar
    28   17   34 1
    29   18   19 ar
    30   18   21 1
    31   19   20 ar
    32   19   35 1
    33   20   36 1
    34   21   22 2
    35   21   23 1
    36   23   25 1
    37   23   24 1
    38   23   37 1
    39   24   25 1
    40   24   38 1
    41   24   39 1
    42   25   40 1
    43   25   41 1
@<TRIPOS>MOLECULE
ZINC66246948
   41    42     0     0     0
SMALL
USER_CHARGES

@<TRIPOS>ATOM
      1 C1         -0.0187    1.5258    0.0104 C.3       1 <0>        -0.1491
      2 C2          0.0021   -0.0041    0.0020 C.3       1 <0>         0.0600
      3 O1         -1.3386   -0.4987    0.0122 O.3       1 <0>        -0.3639
      4 C3         -1.4964   -1.8317    0.0065 C.2       1 <0>         0.4575
      5 O2         -0.5283   -2.5546   -0.0066 O.2       1 <0>        -0.4716
      6 C4         -2.8809   -2.4266    0.0165 C.3       1 <0>        -0.0275
      7 C5         -2.7817   -3.9303    0.0075 C.2       1 <0>         0.1219
      8 C6         -3.3915   -4.6850    0.9526 C.2       1 <0>        -0.3005
      9 S1         -2.9233   -6.3246    0.4234 S.3       1 <0>        -0.1189
     10 C7         -2.0153   -5.8845   -0.9234 C.2       1 <0>         0.4385
     11 N1         -2.1004   -4.5712   -0.9260 N.2       1 <0>        -0.5830
     12 N2         -1.3449   -6.7059   -1.8162 N.2       1 <0>        -1.0144
     13 S2         -1.3825   -8.3495   -1.6177 S.o2      1 <0>         2.6070
     14 O3         -0.6851   -8.6290   -0.4116 O.2       1 <0>        -1.0136
     15 O4         -2.7281   -8.7537   -1.8308 O.2       1 <0>        -1.0114
     16 C8         -0.4323   -9.0539   -2.9237 C.2       1 <0>        -0.6767
     17 C9          0.6861   -9.7109   -2.6499 C.2       1 <0>         0.0162
     18 C10         1.4832  -10.3018   -3.7454 C.ar      1 <0>        -0.0810
     19 C11         1.0642  -10.1650   -5.0693 C.ar      1 <0>        -0.0907
     20 C12         1.8128  -10.7190   -6.0874 C.ar      1 <0>        -0.1248
     21 C13         2.9762  -11.4093   -5.7978 C.ar      1 <0>        -0.0808
     22 C14         3.3968  -11.5489   -4.4873 C.ar      1 <0>        -0.1266
     23 C15         2.6609  -10.9939   -3.4606 C.ar      1 <0>        -0.0914
     24 C16         3.7886  -12.0122   -6.9147 C.3       1 <0>        -0.1145
     25 H1          1.0039    1.9031    0.0027 H         1 <0>         0.0744
     26 H2         -0.5459    1.8868   -0.8726 H         1 <0>         0.0647
     27 H3         -0.5289    1.8773    0.9072 H         1 <0>         0.0639
     28 H4          0.5123   -0.3556   -0.8948 H         1 <0>         0.0650
     29 H5          0.5293   -0.3651    0.8851 H         1 <0>         0.0630
     30 H6         -3.4091   -2.1027    0.9134 H         1 <0>         0.1128
     31 H7         -3.4261   -2.0931   -0.8665 H         1 <0>         0.1131
     32 H8         -3.9946   -4.3791    1.7947 H         1 <0>         0.1733
     33 H9         -0.7610   -8.9505   -3.9472 H         1 <0>         0.1541
     34 H10         1.0148   -9.8144   -1.6263 H         1 <0>         0.1425
     35 H11         0.1558   -9.6269   -5.2966 H         1 <0>         0.1302
     36 H12         1.4896  -10.6138   -7.1125 H         1 <0>         0.1248
     37 H13         4.3056  -12.0895   -4.2677 H         1 <0>         0.1246
     38 H14         2.9930  -11.0991   -2.4383 H         1 <0>         0.1299
     39 H15         4.5219  -11.2853   -7.2640 H         1 <0>         0.0709
     40 H16         4.3034  -12.9013   -6.5506 H         1 <0>         0.0660
     41 H17         3.1282  -12.2860   -7.7375 H         1 <0>         0.0661
@<TRIPOS>BOND
     1    1    2 1
     2    1   25 1
     3    1   26 1
     4    1   27 1
     5    2    3 1
     6    2   28 1
     7    2   29 1
     8    3    4 1
     9    4    5 2
    10    4    6 1
    11    6    7 1
    12    6   30 1
    13    6   31 1
    14    7   11 1
    15    7    8 2
    16    8    9 1
    17    8   32 1
    18    9   10 1
    19   10   11 2
    20   10   12 1
    21   12   13 1
    22   13   14 2
    23   13   15 2
    24   13   16 1
    25   16   17 2
    26   16   33 1
    27   17   18 1
    28   17   34 1
    29   18   23 ar
    30   18   19 ar
    31   19   20 ar
    32   19   35 1
    33   20   21 ar
    34   20   36 1
    35   21   22 ar
    36   21   24 1
    37   22   23 ar
    38   22   37 1
    39   23   38 1
    40   24   39 1
    41   24   40 1
    42   24   41 1
@<TRIPOS>MOLECULE
ZINC12507211
   50    54     0     0     0
SMALL
USER_CHARGES
N-(1H-indazol-6-yl)-5,6-dimethyl-2-(pyrrolidin-1-ylmethyl)thieno[3,2-e]pyrimidin-4-amine
@<TRIPOS>ATOM
      1 C1         -2.5185    1.8306   -0.2347 C.3       1 <0>        -0.1183
      2 C2         -1.1158    2.3423   -0.0302 C.2       1 <0>        -0.1101
      3 C3         -0.8239    3.6315   -0.2578 C.2       1 <0>        -0.1112
      4 S1          0.9175    3.7356    0.1100 S.3       1 <0>         0.1545
      5 C4          1.2049    2.0464    0.5663 C.ar      1 <0>         0.1263
      6 C5         -0.0653    1.4460    0.4196 C.ar      1 <0>        -0.1991
      7 C6         -0.1229    0.0590    0.7276 C.ar      1 <0>         0.4875
      8 N1          0.9787   -0.5613    1.1189 N.ar      1 <0>        -0.5592
      9 C7          2.1356    0.0652    1.2340 C.ar      1 <0>         0.3089
     10 N2          2.2520    1.3510    0.9631 N.ar      1 <0>        -0.4876
     11 C8          3.3494   -0.7056    1.6854 C.3       1 <0>         0.0892
     12 C9          4.3199   -0.2030   -0.4903 C.3       1 <0>        -0.0058
     13 C10         5.4582   -0.8165   -1.3438 C.3       1 <0>        -0.1459
     14 C11         6.3081   -1.5709   -0.2957 C.3       1 <0>        -0.1447
     15 C12         5.3575   -1.8182    0.8903 C.3       1 <0>        -0.0091
     16 N3         -1.3163   -0.6338    0.6191 N.pl3     1 <0>        -0.6357
     17 C13        -1.3394   -2.0190    0.8036 C.ar      1 <0>         0.1944
     18 C14        -2.4643   -2.6251    1.3665 C.ar      1 <0>        -0.1781
     19 C15        -2.5052   -3.9740    1.5536 C.ar      1 <0>        -0.0071
     20 C16        -1.4108   -4.7655    1.1794 C.ar      1 <0>        -0.1888
     21 C17        -1.1474   -6.1557    1.2404 C.2       1 <0>         0.0856
     22 N4          0.0395   -6.3766    0.7549 N.2       1 <0>        -0.2477
     23 N5          0.6192   -5.1675    0.3518 N.pl3     1 <0>        -0.5122
     24 H1          1.5264   -5.0580   -0.0545 H         1 <0>         0.4425
     25 C18        -0.2740   -4.1593    0.6113 C.ar      1 <0>         0.1441
     26 C19        -0.2504   -2.7809    0.4222 C.ar      1 <0>        -0.1476
     27 C20        -1.7470    4.7293   -0.7200 C.3       1 <0>        -0.0809
     28 H2         -3.0362    1.7965    0.7238 H         1 <0>         0.0838
     29 H3         -3.0527    2.4962   -0.9127 H         1 <0>         0.0910
     30 H4         -2.4810    0.8291   -0.6633 H         1 <0>         0.0680
     31 H5          4.0240   -0.0390    2.2227 H         1 <0>         0.1550
     32 H6          3.0401   -1.5174    2.3436 H         1 <0>         0.1563
     33 H7          3.4393   -0.0122   -1.1036 H         1 <0>         0.1245
     34 H8          4.6555    0.7118   -0.0020 H         1 <0>         0.1439
     35 H9          6.0446   -0.0335   -1.8247 H         1 <0>         0.1172
     36 H10         5.0556   -1.5080   -2.0840 H         1 <0>         0.0957
     37 H11         7.1531   -0.9581    0.0182 H         1 <0>         0.1057
     38 H12         6.6582   -2.5189   -0.7040 H         1 <0>         0.1056
     39 H13         5.7341   -1.3129    1.7796 H         1 <0>         0.1358
     40 H14         5.2683   -2.8883    1.0778 H         1 <0>         0.1360
     41 H15        -2.1366   -0.1580    0.4151 H         1 <0>         0.4302
     42 H16        -3.3098   -2.0189    1.6566 H         1 <0>         0.1336
     43 H17        -3.3803   -4.4329    1.9895 H         1 <0>         0.1406
     44 H18        -1.8198   -6.9076    1.6263 H         1 <0>         0.1979
     45 H19         0.6159   -2.3081   -0.0166 H         1 <0>         0.1289
     46 H20        -1.1875    5.6604   -0.8104 H         1 <0>         0.0836
     47 H21        -2.1702    4.4643   -1.6889 H         1 <0>         0.0930
     48 H22        -2.5509    4.8574    0.0049 H         1 <0>         0.0933
     49 N6          4.0617   -1.2633    0.4966 N.4       1 <0>        -0.3924
     50 H23         3.4840   -1.9987    0.0725 H         1 <0>         0.4287
@<TRIPOS>BOND
     1    1    2 1
     2    1   28 1
     3    1   29 1
     4    1   30 1
     5    2    6 1
     6    2    3 2
     7    3    4 1
     8    3   27 1
     9    4    5 1
    10    5   10 ar
    11    5    6 ar
    12    6    7 ar
    13    7    8 ar
    14    7   16 1
    15    8    9 ar
    16    9   10 ar
    17    9   11 1
    18   11   31 1
    19   11   32 1
    20   11   49 1
    21   12   13 1
    22   12   33 1
    23   12   34 1
    24   12   49 1
    25   13   14 1
    26   13   35 1
    27   13   36 1
    28   14   15 1
    29   14   37 1
    30   14   38 1
    31   15   39 1
    32   15   40 1
    33   15   49 1
    34   16   17 1
    35   16   41 1
    36   17   26 ar
    37   17   18 ar
    38   18   19 ar
    39   18   42 1
    40   19   20 ar
    41   19   43 1
    42   20   25 ar
    43   20   21 1
    44   21   22 2
    45   21   44 1
    46   22   23 1
    47   23   24 1
    48   23   25 1
    49   25   26 ar
    50   26   45 1
    51   27   46 1
    52   27   47 1
    53   27   48 1
    54   49   50 1
@<TRIPOS>MOLECULE
ZINC46943508
   57    59     0     0     0
SMALL
USER_CHARGES

@<TRIPOS>ATOM
      1 C1         -0.1980    0.8078   -0.7091 C.3       1 <0>        -0.1656
      2 C2          0.2734   -0.5790   -0.2667 C.3       1 <0>         0.1656
      3 C3          1.4746   -1.0036   -1.1138 C.3       1 <0>        -0.1644
      4 N1          0.6623   -0.5352    1.1450 N.pl3     1 <0>        -0.6733
      5 C4          1.7371    0.3597    1.5813 C.3       1 <0>         0.1133
      6 C5          0.0066   -1.3491    2.0778 C.ar      1 <0>         0.1288
      7 C6          0.4895   -2.6217    2.3495 C.ar      1 <0>        -0.0774
      8 C7         -0.1572   -3.4245    3.2688 C.ar      1 <0>        -0.1476
      9 C8         -1.2906   -2.9595    3.9218 C.ar      1 <0>         0.1786
     10 C9         -1.7752   -1.6869    3.6513 C.ar      1 <0>        -0.1523
     11 C10        -1.1250   -0.8803    2.7359 C.ar      1 <0>         0.1110
     12 F1         -1.5923    0.3605    2.4766 F         1 <0>        -0.1290
     13 N2         -1.9464   -3.7754    4.8542 N.am      1 <0>        -0.6812
     14 C11        -2.5183   -3.2274    5.9447 C.2       1 <0>         0.7062
     15 O1         -2.5346   -2.0192    6.0804 O.2       1 <0>        -0.5660
     16 N3         -3.0720   -4.0186    6.8848 N.am      1 <0>        -0.7400
     17 C12        -3.6937   -3.4229    8.0701 C.3       1 <0>         0.1635
     18 C13        -2.6217   -3.1598    9.1302 C.3       1 <0>        -0.1500
     19 C14        -3.2696   -2.5053   10.3544 C.3       1 <0>         0.1015
     20 N4         -4.3772   -3.3544   10.8139 N.pl3     1 <0>        -0.5886
     21 C15        -5.4163   -3.7428    9.8505 C.3       1 <0>         0.1140
     22 C16        -4.7443   -4.3834    8.6320 C.3       1 <0>        -0.1486
     23 C17        -4.4404   -3.7824   12.1349 C.ar      1 <0>         0.4455
     24 C18        -5.4265   -4.6850   12.5207 C.ar      1 <0>        -0.2016
     25 C19        -5.4779   -5.1025   13.8382 C.ar      1 <0>         0.0378
     26 C20        -4.5378   -4.6015   14.7293 C.ar      1 <0>        -0.1717
     27 C21        -3.5870   -3.7086   14.2780 C.ar      1 <0>         0.1470
     28 N5         -3.5585   -3.3318   13.0135 N.ar      1 <0>        -0.5078
     29 H1          0.6115    1.5258   -0.5773 H         1 <0>         0.0568
     30 H2         -0.4874    0.7752   -1.7594 H         1 <0>         0.0620
     31 H3         -1.0538    1.1103   -0.1056 H         1 <0>         0.0576
     32 H4         -0.5361   -1.2970   -0.3985 H         1 <0>         0.0746
     33 H5          2.2841   -0.2856   -0.9820 H         1 <0>         0.0580
     34 H6          1.8104   -1.9915   -0.7986 H         1 <0>         0.0560
     35 H7          1.1852   -1.0361   -2.1642 H         1 <0>         0.0634
     36 H8          1.3156    1.3266    1.8560 H         1 <0>         0.0353
     37 H9          2.2435   -0.0741    2.4436 H         1 <0>         0.0536
     38 H10         2.4517    0.4923    0.7690 H         1 <0>         0.0635
     39 H11         1.3710   -2.9844    1.8417 H         1 <0>         0.1384
     40 H12         0.2190   -4.4147    3.4794 H         1 <0>         0.1328
     41 H13        -2.6573   -1.3256    4.1589 H         1 <0>         0.1508
     42 H14        -1.9886   -4.7344    4.7146 H         1 <0>         0.4111
     43 H15        -3.0590   -4.9824    6.7766 H         1 <0>         0.4015
     44 H16        -4.1713   -2.4823    7.7958 H         1 <0>         0.1005
     45 H17        -2.1606   -4.1030    9.4233 H         1 <0>         0.0768
     46 H18        -1.8614   -2.4942    8.7215 H         1 <0>         0.1007
     47 H19        -2.5309   -2.4062   11.1497 H         1 <0>         0.0807
     48 H20        -3.6518   -1.5212   10.0832 H         1 <0>         0.1051
     49 H21        -6.0939   -4.4602   10.3134 H         1 <0>         0.1076
     50 H22        -5.9735   -2.8596    9.5383 H         1 <0>         0.1015
     51 H23        -5.4948   -4.5887    7.8687 H         1 <0>         0.1034
     52 H24        -4.2632   -5.3151    8.9298 H         1 <0>         0.0827
     53 H25        -6.1423   -5.0543   11.8012 H         1 <0>         0.1790
     54 H26        -6.2323   -5.8020   14.1667 H         1 <0>         0.1742
     55 H27        -4.5509   -4.9073   15.7650 H         1 <0>         0.1804
     56 H28        -2.8543   -3.3163   14.9677 H         1 <0>         0.2059
     57 H29        -2.8772   -2.7061   12.7216 H         1 <0>         0.4384
@<TRIPOS>BOND
     1    1    2 1
     2    1   29 1
     3    1   30 1
     4    1   31 1
     5    2    3 1
     6    2    4 1
     7    2   32 1
     8    3   33 1
     9    3   34 1
    10    3   35 1
    11    4    5 1
    12    4    6 1
    13    5   36 1
    14    5   37 1
    15    5   38 1
    16    6   11 ar
    17    6    7 ar
    18    7    8 ar
    19    7   39 1
    20    8    9 ar
    21    8   40 1
    22    9   10 ar
    23    9   13 1
    24   10   11 ar
    25   10   41 1
    26   11   12 1
    27   13   14 am
    28   13   42 1
    29   14   15 2
    30   14   16 am
    31   16   17 1
    32   16   43 1
    33   17   22 1
    34   17   18 1
    35   17   44 1
    36   18   19 1
    37   18   45 1
    38   18   46 1
    39   19   20 1
    40   19   47 1
    41   19   48 1
    42   20   21 1
    43   20   23 1
    44   21   22 1
    45   21   49 1
    46   21   50 1
    47   22   51 1
    48   22   52 1
    49   23   28 ar
    50   23   24 ar
    51   24   25 ar
    52   24   53 1
    53   25   26 ar
    54   25   54 1
    55   26   27 ar
    56   26   55 1
    57   27   28 ar
    58   27   56 1
    59   28   57 1
@<TRIPOS>MOLECULE
ZINC62410622
   58    61     0     0     0
SMALL
USER_CHARGES

@<TRIPOS>ATOM
      1 C1          0.0707    1.2414    0.5963 C.ar      1 <0>        -0.0641
      2 C2          1.2557    1.9467    0.5957 C.ar      1 <0>        -0.1412
      3 C3          2.3814    1.4152   -0.0214 C.ar      1 <0>         0.1622
      4 C4          2.3160    0.1724   -0.6392 C.ar      1 <0>        -0.1169
      5 C5          1.1330   -0.5362   -0.6415 C.ar      1 <0>        -0.0794
      6 C6          0.0028   -0.0053   -0.0227 C.ar      1 <0>        -0.0282
      7 C7         -1.2714   -0.7666   -0.0230 C.2       1 <0>         0.0505
      8 C8         -1.3973   -1.9970   -0.6097 C.2       1 <0>        -0.2778
      9 S1         -3.0078   -2.3646   -0.3073 S.3       1 <0>         0.4184
     10 N1         -3.4411   -1.0322    0.5010 N.2       1 <0>        -0.2415
     11 N2         -2.3754   -0.3125    0.5489 N.2       1 <0>        -0.2423
     12 N3          3.5827    2.1330   -0.0212 N.am      1 <0>        -0.6797
     13 C9          4.7582    1.4794    0.0658 C.2       1 <0>         0.7076
     14 O1          4.7797    0.2637    0.0597 O.2       1 <0>        -0.5654
     15 N4          5.9098    2.1733    0.1597 N.am      1 <0>        -0.7406
     16 C10         7.1875    1.4629    0.2542 C.3       1 <0>         0.1560
     17 C11         7.4669    1.1040    1.7165 C.3       1 <0>        -0.1623
     18 C12         8.8385    0.4334    1.8184 C.3       1 <0>        -0.0025
     19 N5          9.8741    1.3531    1.3323 N.4       1 <0>        -0.3857
     20 C13         9.6535    1.6451   -0.0892 C.3       1 <0>        -0.0063
     21 C14         8.3132    2.3623   -0.2644 C.3       1 <0>        -0.1558
     22 C15        11.1956    0.7351    1.5043 C.3       1 <0>        -0.0081
     23 C16        12.2826    1.7390    1.1149 C.3       1 <0>        -0.1140
     24 C17        12.2583    2.9199    2.0873 C.3       1 <0>        -0.1282
     25 C18        13.3453    3.9237    1.6979 C.3       1 <0>        -0.1200
     26 C19        14.7138    3.2422    1.7573 C.3       1 <0>        -0.1269
     27 C20        14.7381    2.0613    0.7849 C.3       1 <0>        -0.1223
     28 C21        13.6512    1.0574    1.1743 C.3       1 <0>        -0.1116
     29 H1         -0.8029    1.6529    1.0800 H         1 <0>         0.1413
     30 H2          1.3087    2.9130    1.0750 H         1 <0>         0.1319
     31 H3          3.1922   -0.2387   -1.1183 H         1 <0>         0.1449
     32 H4          1.0824   -1.5019   -1.1224 H         1 <0>         0.1313
     33 H5         -0.6534   -2.5804   -1.1318 H         1 <0>         0.2093
     34 H6          3.5694    3.1009   -0.0836 H         1 <0>         0.4106
     35 H7          5.8926    3.1431    0.1646 H         1 <0>         0.4038
     36 H8          7.1435    0.5526   -0.3437 H         1 <0>         0.1084
     37 H9          7.4591    2.0105    2.3217 H         1 <0>         0.0898
     38 H10         6.6992    0.4189    2.0763 H         1 <0>         0.1194
     39 H11         9.0405    0.1764    2.8582 H         1 <0>         0.1345
     40 H12         8.8451   -0.4731    1.2131 H         1 <0>         0.1333
     41 H13        10.4571    2.2827   -0.4577 H         1 <0>         0.1377
     42 H14         9.6427    0.7128   -0.6538 H         1 <0>         0.1345
     43 H15         8.1504    2.5767   -1.3207 H         1 <0>         0.1206
     44 H16         8.3229    3.2950    0.2996 H         1 <0>         0.0942
     45 H17        11.3273    0.4430    2.5462 H         1 <0>         0.1326
     46 H18        11.2702   -0.1464    0.8676 H         1 <0>         0.1325
     47 H19        12.0994    2.0983    0.1023 H         1 <0>         0.0944
     48 H20        11.2833    3.4054    2.0450 H         1 <0>         0.0546
     49 H21        12.4416    2.5605    3.0999 H         1 <0>         0.0792
     50 H22        13.1620    4.2831    0.6853 H         1 <0>         0.0666
     51 H23        13.3280    4.7650    2.3907 H         1 <0>         0.0728
     52 H24        15.4882    3.9573    1.4799 H         1 <0>         0.0713
     53 H25        14.8971    2.8828    2.7699 H         1 <0>         0.0667
     54 H26        14.5549    2.4206   -0.2277 H         1 <0>         0.0664
     55 H27        15.7131    1.5757    0.8272 H         1 <0>         0.0744
     56 H28        13.8344    0.6981    2.1869 H         1 <0>         0.0746
     57 H29        13.6685    0.2161    0.4815 H         1 <0>         0.0741
     58 H30         9.8351    2.2116    1.8610 H         1 <0>         0.4204
@<TRIPOS>BOND
     1    1    6 ar
     2    1    2 ar
     3    1   29 1
     4    2    3 ar
     5    2   30 1
     6    3    4 ar
     7    3   12 1
     8    4    5 ar
     9    4   31 1
    10    5    6 ar
    11    5   32 1
    12    6    7 1
    13    7   11 1
    14    7    8 2
    15    8    9 1
    16    8   33 1
    17    9   10 1
    18   10   11 2
    19   12   13 am
    20   12   34 1
    21   13   14 2
    22   13   15 am
    23   15   16 1
    24   15   35 1
    25   16   21 1
    26   16   17 1
    27   16   36 1
    28   17   18 1
    29   17   37 1
    30   17   38 1
    31   18   19 1
    32   18   39 1
    33   18   40 1
    34   19   20 1
    35   19   22 1
    36   19   58 1
    37   20   21 1
    38   20   41 1
    39   20   42 1
    40   21   43 1
    41   21   44 1
    42   22   23 1
    43   22   45 1
    44   22   46 1
    45   23   28 1
    46   23   24 1
    47   23   47 1
    48   24   25 1
    49   24   48 1
    50   24   49 1
    51   25   26 1
    52   25   50 1
    53   25   51 1
    54   26   27 1
    55   26   52 1
    56   26   53 1
    57   27   28 1
    58   27   54 1
    59   27   55 1
    60   28   56 1
    61   28   57 1
@<TRIPOS>MOLECULE
ZINC63919961
   49    53     0     0     0
SMALL
USER_CHARGES

@<TRIPOS>ATOM
      1 C1         -0.0163    1.3482    0.0095 C.ar      1 <0>        -0.1479
      2 C2          1.1658    2.1014    0.0022 C.ar      1 <0>         0.0564
      3 C3          2.3912    1.5352   -0.0125 C.ar      1 <0>        -0.2090
      4 C4          2.5288    0.1198   -0.0218 C.ar      1 <0>         0.3307
      5 N1          3.5868   -0.6543   -0.0369 N.pl3     1 <0>        -0.5808
      6 C5          3.1432   -2.0528   -0.0408 C.3       1 <0>         0.0535
      7 C6          1.6315   -2.0084   -0.0255 C.2       1 <0>         0.0740
      8 C7          1.2951   -0.6984   -0.0144 C.ar      1 <0>        -0.1570
      9 C8          0.0021   -0.0041    0.0020 C.ar      1 <0>        -0.0129
     10 C9          0.6905   -3.1856   -0.0239 C.3       1 <0>        -0.0306
     11 H1         -0.3390   -2.8277   -0.0118 H         1 <0>         0.1313
     12 C10         0.9234   -4.0264   -1.2808 C.3       1 <0>         0.1308
     13 N2         -0.0696   -5.1019   -1.3397 N.am      1 <0>        -0.7282
     14 C11        -0.0582   -5.9740   -2.3672 C.2       1 <0>         0.5749
     15 O1          0.7761   -5.8682   -3.2451 O.2       1 <0>        -0.5230
     16 C12        -1.0594   -7.0584   -2.4267 C.ar      1 <0>        -0.1636
     17 C13        -2.0242   -7.1743   -1.4153 C.ar      1 <0>        -0.0437
     18 C14        -2.9538   -8.1698   -1.4584 C.ar      1 <0>        -0.1199
     19 C15        -2.9525   -9.0832   -2.5104 C.ar      1 <0>         0.1141
     20 C16        -1.9923   -8.9826   -3.5340 C.ar      1 <0>        -0.0281
     21 C17        -1.0451   -7.9556   -3.4867 C.ar      1 <0>         0.0476
     22 N3         -2.2245   -9.9864   -4.4129 N.2       1 <0>        -0.1996
     23 N4         -3.2308  -10.6888   -4.0271 N.2       1 <0>         0.0153
     24 N5         -3.7347  -10.1657   -2.8276 N.pl3     1 <0>        -0.4917
     25 H2         -4.4895  -10.5032   -2.3204 H         1 <0>         0.4532
     26 C18         0.9435   -4.0292    1.1989 C.ar      1 <0>        -0.0983
     27 C19         2.1894   -4.5914    1.4052 C.ar      1 <0>        -0.1103
     28 C20         2.4216   -5.3653    2.5267 C.ar      1 <0>        -0.1003
     29 C21         1.4080   -5.5775    3.4428 C.ar      1 <0>        -0.0879
     30 C22         0.1621   -5.0159    3.2377 C.ar      1 <0>        -0.0958
     31 C23        -0.0693   -4.2365    2.1180 C.ar      1 <0>        -0.0273
     32 Cl1        -1.6323   -3.5253    1.8629 Cl        1 <0>        -0.0533
     33 H3         -0.9665    1.8612    0.0259 H         1 <0>         0.1592
     34 H4          1.0933    3.1789    0.0083 H         1 <0>         0.1623
     35 H5          3.2717    2.1606   -0.0175 H         1 <0>         0.1623
     36 H6          3.4952   -2.5561   -0.9413 H         1 <0>         0.1777
     37 H7          3.5129   -2.5667    0.8465 H         1 <0>         0.1751
     38 H8         -0.9210   -0.5647    0.0081 H         1 <0>         0.1595
     39 H9          0.8274   -3.3944   -2.1637 H         1 <0>         0.0888
     40 H10         1.9242   -4.4572   -1.2494 H         1 <0>         0.0849
     41 H11        -0.7353   -5.1863   -0.6393 H         1 <0>         0.4035
     42 H12        -2.0303   -6.4700   -0.5966 H         1 <0>         0.1361
     43 H13        -3.6928   -8.2511   -0.6751 H         1 <0>         0.1438
     44 H14        -0.3045   -7.8628   -4.2674 H         1 <0>         0.1570
     45 H15         2.9814   -4.4263    0.6898 H         1 <0>         0.1319
     46 H16         3.3950   -5.8046    2.6873 H         1 <0>         0.1399
     47 H17         1.5899   -6.1825    4.3188 H         1 <0>         0.1431
     48 H18        -0.6297   -5.1820    3.9532 H         1 <0>         0.1451
     49 H19         4.5087   -0.3528   -0.0446 H         1 <0>         0.4572
@<TRIPOS>BOND
     1    1    9 ar
     2    1    2 ar
     3    1   33 1
     4    2    3 ar
     5    2   34 1
     6    3    4 ar
     7    3   35 1
     8    4    8 ar
     9    4    5 2
    10    5    6 1
    11    5   49 1
    12    6    7 1
    13    6   36 1
    14    6   37 1
    15    7    8 2
    16    7   10 1
    17    8    9 ar
    18    9   38 1
    19   10   11 1
    20   10   12 1
    21   10   26 1
    22   12   13 1
    23   12   39 1
    24   12   40 1
    25   13   14 am
    26   13   41 1
    27   14   15 2
    28   14   16 1
    29   16   21 ar
    30   16   17 ar
    31   17   18 ar
    32   17   42 1
    33   18   19 ar
    34   18   43 1
    35   19   24 1
    36   19   20 ar
    37   20   21 ar
    38   20   22 1
    39   21   44 1
    40   22   23 2
    41   23   24 1
    42   24   25 1
    43   26   31 ar
    44   26   27 ar
    45   27   28 ar
    46   27   45 1
    47   28   29 ar
    48   28   46 1
    49   29   30 ar
    50   29   47 1
    51   30   31 ar
    52   30   48 1
    53   31   32 1
@<TRIPOS>MOLECULE
ZINC66681528
   62    64     0     0     0
SMALL
USER_CHARGES

@<TRIPOS>ATOM
      1 C1          0.4325   -9.4699    5.6167 C.3       1 <0>        -0.0733
      2 C2          0.5612   -8.6641    4.3497 C.2       1 <0>         0.0750
      3 C3         -0.4465   -8.4604    3.4013 C.2       1 <0>        -0.2717
      4 C4          0.0606   -7.6852    2.4149 C.2       1 <0>         0.0885
      5 N1          1.3437   -7.4081    2.7280 N.pl3     1 <0>        -0.3673
      6 N2          1.6332   -8.0295    3.9497 N.2       1 <0>        -0.2978
      7 C5          2.2688   -6.5965    1.9333 C.3       1 <0>         0.1735
      8 C6          2.1645   -5.1545    2.3586 C.ar      1 <0>        -0.0939
      9 C7          1.2543   -4.3162    1.7408 C.ar      1 <0>        -0.1091
     10 C8          1.1556   -2.9926    2.1281 C.ar      1 <0>        -0.0984
     11 C9          1.9662   -2.5035    3.1339 C.ar      1 <0>        -0.1324
     12 C10         2.8809   -3.3425    3.7561 C.ar      1 <0>         0.1479
     13 C11         2.9738   -4.6730    3.3686 C.ar      1 <0>        -0.0873
     14 N3          3.7036   -2.8500    4.7755 N.am      1 <0>        -0.6779
     15 C12         4.9535   -3.3317    4.9246 C.2       1 <0>         0.7081
     16 O1          5.3953   -4.1340    4.1249 O.2       1 <0>        -0.5491
     17 N4          5.7136   -2.9241    5.9602 N.am      1 <0>        -0.7619
     18 C13         7.0722   -3.4477    6.1224 C.3       1 <0>         0.1148
     19 C14         7.6736   -2.9117    7.4231 C.3       1 <0>         0.0150
     20 H1          7.0913   -3.2756    8.2697 H         1 <0>         0.1467
     21 C15         9.1195   -3.3944    7.5535 C.3       1 <0>        -0.1818
     22 N5          7.6473   -1.4430    7.4059 N.4       1 <0>        -0.3819
     23 C16         8.5031   -0.9525    6.3190 C.3       1 <0>        -0.0195
     24 C17         8.4159    0.5734    6.2450 C.3       1 <0>        -0.1434
     25 C18         8.8843    1.1711    7.5749 C.3       1 <0>        -0.1352
     26 C19         8.0327    0.5954    8.7101 C.3       1 <0>        -0.1097
     27 H2          6.9932    0.8928    8.5720 H         1 <0>         0.0924
     28 C20         8.1341   -0.9313    8.6927 C.3       1 <0>        -0.0100
     29 C21         8.5423    1.1270   10.0512 C.3       1 <0>        -0.1521
     30 C22        -0.6755   -7.2158    1.1866 C.3       1 <0>        -0.0961
     31 H3          0.0920   -8.8233    6.4254 H         1 <0>         0.0748
     32 H4         -0.2890  -10.2727    5.4649 H         1 <0>         0.0791
     33 H5          1.4015   -9.8964    5.8760 H         1 <0>         0.0710
     34 H6         -1.4515   -8.8530    3.4478 H         1 <0>         0.1469
     35 H7          3.2883   -6.9488    2.0905 H         1 <0>         0.1042
     36 H8          2.0131   -6.6832    0.8773 H         1 <0>         0.1044
     37 H9          0.6197   -4.6962    0.9539 H         1 <0>         0.1283
     38 H10         0.4441   -2.3404    1.6434 H         1 <0>         0.1341
     39 H11         1.8888   -1.4694    3.4358 H         1 <0>         0.1276
     40 H12         3.6809   -5.3293    3.8540 H         1 <0>         0.1379
     41 H13         3.3743   -2.1619    5.3747 H         1 <0>         0.4075
     42 H14         5.3612   -2.2841    6.5982 H         1 <0>         0.3895
     43 H15         7.0400   -4.5367    6.1587 H         1 <0>         0.1184
     44 H16         7.6869   -3.1303    5.2800 H         1 <0>         0.0956
     45 H17         9.5479   -3.0125    8.4801 H         1 <0>         0.0897
     46 H18         9.1390   -4.4841    7.5662 H         1 <0>         0.1117
     47 H19         9.7018   -3.0305    6.7069 H         1 <0>         0.0876
     48 H20         9.5351   -1.2483    6.5080 H         1 <0>         0.1354
     49 H21         8.1705   -1.3812    5.3736 H         1 <0>         0.1315
     50 H22         9.0534    0.9358    5.4385 H         1 <0>         0.1141
     51 H23         7.3844    0.8703    6.0558 H         1 <0>         0.0856
     52 H24         9.9314    0.9171    7.7400 H         1 <0>         0.0836
     53 H25         8.7708    2.2548    7.5476 H         1 <0>         0.0954
     54 H26         7.5290   -1.3444    9.4998 H         1 <0>         0.1311
     55 H27         9.1739   -1.2276    8.8311 H         1 <0>         0.1339
     56 H28         8.4729    2.2147   10.0610 H         1 <0>         0.0784
     57 H29         7.9358    0.7169   10.8587 H         1 <0>         0.0687
     58 H30         9.5814    0.8280   10.1894 H         1 <0>         0.0681
     59 H31        -1.1578   -6.2608    1.3948 H         1 <0>         0.0810
     60 H32         0.0298   -7.0950    0.3643 H         1 <0>         0.0703
     61 H33        -1.4308   -7.9522    0.9121 H         1 <0>         0.0883
     62 H34         6.7012   -1.1263    7.2554 H         1 <0>         0.4142
@<TRIPOS>BOND
     1    1    2 1
     2    1   31 1
     3    1   32 1
     4    1   33 1
     5    2    6 2
     6    2    3 1
     7    3    4 2
     8    3   34 1
     9    4    5 1
    10    4   30 1
    11    5    6 1
    12    5    7 1
    13    7    8 1
    14    7   35 1
    15    7   36 1
    16    8   13 ar
    17    8    9 ar
    18    9   10 ar
    19    9   37 1
    20   10   11 ar
    21   10   38 1
    22   11   12 ar
    23   11   39 1
    24   12   13 ar
    25   12   14 1
    26   13   40 1
    27   14   15 am
    28   14   41 1
    29   15   16 2
    30   15   17 am
    31   17   18 1
    32   17   42 1
    33   18   19 1
    34   18   43 1
    35   18   44 1
    36   19   20 1
    37   19   21 1
    38   19   22 1
    39   21   45 1
    40   21   46 1
    41   21   47 1
    42   22   28 1
    43   22   23 1
    44   22   62 1
    45   23   24 1
    46   23   48 1
    47   23   49 1
    48   24   25 1
    49   24   50 1
    50   24   51 1
    51   25   26 1
    52   25   52 1
    53   25   53 1
    54   26   27 1
    55   26   28 1
    56   26   29 1
    57   28   54 1
    58   28   55 1
    59   29   56 1
    60   29   57 1
    61   29   58 1
    62   30   59 1
    63   30   60 1
    64   30   61 1
@<TRIPOS>MOLECULE
ZINC13841686
   38    39     0     0     0
SMALL
USER_CHARGES
2-[[N'-(4,6-dimethylpyrimidin-2-yl)hydrazino]methylene]-5-methyl-cyclohexane-1,3-dione
@<TRIPOS>ATOM
      1 C1          5.9107    3.4046   -0.0352 C.3       1 <0>        -0.1118
      2 C2          4.6102    4.1659   -0.0187 C.ar      1 <0>         0.2281
      3 C3          4.6089    5.5519   -0.0112 C.ar      1 <0>        -0.2842
      4 C4          3.3909    6.2133    0.0035 C.ar      1 <0>         0.2287
      5 N1          2.2728    5.5064    0.0099 N.ar      1 <0>        -0.5677
      6 C5          2.3089    4.1820    0.0025 C.ar      1 <0>         0.5759
      7 N2          3.4563    3.5194   -0.0066 N.ar      1 <0>        -0.5818
      8 N3          1.1198    3.4737    0.0100 N.pl3     1 <0>        -0.5193
      9 N4          1.1388    2.0728    0.0023 N.pl3     1 <0>        -0.4679
     10 C6         -0.0168    1.3845    0.0097 C.2       1 <0>         0.2813
     11 C7          0.0021   -0.0041    0.0020 C.2       1 <0>        -0.4503
     12 C8          1.2595   -0.7792   -0.0204 C.2       1 <0>         0.4178
     13 O1          2.2329   -0.4348    0.6177 O.2       1 <0>        -0.4812
     14 C9          1.2756   -2.0262   -0.8748 C.3       1 <0>        -0.1615
     15 C10         0.0358   -2.8654   -0.5542 C.3       1 <0>        -0.0780
     16 C11        -1.2323   -2.0603   -0.8511 C.3       1 <0>        -0.1596
     17 C12        -1.2339   -0.8131    0.0095 C.2       1 <0>         0.4314
     18 O2         -2.2010   -0.4951    0.6705 O.2       1 <0>        -0.4734
     19 C13         0.0449   -4.1328   -1.4113 C.3       1 <0>        -0.1489
     20 C14         3.3409    7.7194    0.0116 C.3       1 <0>        -0.1127
     21 H1          6.7510    4.1144   -0.0436 H         1 <0>         0.0839
     22 H2          5.9548    2.7736   -0.9351 H         1 <0>         0.0869
     23 H3          5.9755    2.7701    0.8610 H         1 <0>         0.0884
     24 H4          5.5367    6.1046   -0.0164 H         1 <0>         0.1482
     25 H5          0.1598    4.0107    0.0220 H         1 <0>         0.4697
     26 H6          2.0988    1.5358   -0.0098 H         1 <0>         0.4764
     27 H7         -0.9768    1.9214    0.0219 H         1 <0>         0.1672
     28 H8          1.2672   -1.7426   -1.9376 H         1 <0>         0.1026
     29 H9          2.1837   -2.6077   -0.6577 H         1 <0>         0.0921
     30 H10         0.0497   -3.1378    0.5115 H         1 <0>         0.0779
     31 H11        -1.2473   -1.7787   -1.9143 H         1 <0>         0.1026
     32 H12        -2.1172   -2.6720   -0.6213 H         1 <0>         0.0926
     33 H13        -0.8454   -4.7368   -1.1821 H         1 <0>         0.0621
     34 H14         0.9508   -4.7171   -1.1922 H         1 <0>         0.0614
     35 H15         0.0358   -3.8556   -2.4758 H         1 <0>         0.0608
     36 H16         2.2923    8.0514    0.0231 H         1 <0>         0.0838
     37 H17         3.8386    8.1076   -0.8893 H         1 <0>         0.0891
     38 H18         3.8553    8.0985    0.9069 H         1 <0>         0.0892
@<TRIPOS>BOND
     1    1    2 1
     2    1   21 1
     3    1   22 1
     4    1   23 1
     5    2    7 ar
     6    2    3 ar
     7    3    4 ar
     8    3   24 1
     9    4    5 ar
    10    4   20 1
    11    5    6 ar
    12    6    7 ar
    13    6    8 1
    14    8    9 1
    15    8   25 1
    16    9   10 1
    17    9   26 1
    18   10   11 2
    19   10   27 1
    20   11   17 1
    21   11   12 1
    22   12   13 2
    23   12   14 1
    24   14   15 1
    25   14   28 1
    26   14   29 1
    27   15   16 1
    28   15   19 1
    29   15   30 1
    30   16   17 1
    31   16   31 1
    32   16   32 1
    33   17   18 2
    34   19   33 1
    35   19   34 1
    36   19   35 1
    37   20   36 1
    38   20   37 1
    39   20   38 1
@<TRIPOS>MOLECULE
ZINC39458513
   34    36     0     0     0
SMALL
USER_CHARGES

@<TRIPOS>ATOM
      1 C1          0.2300    1.5921    0.0878 C.3       1 <0>        -0.0919
      2 C2          0.1146    0.0911    0.0182 C.2       1 <0>         0.0540
      3 C3          0.0867   -0.6479   -1.1222 C.2       1 <0>         0.0364
      4 C4         -0.0297   -1.9872   -0.7550 C.2       1 <0>        -0.0833
      5 C5         -0.0796   -2.0441    0.6301 C.2       1 <0>        -0.0047
      6 N1          0.0273   -0.7457    1.0857 N.pl3     1 <0>        -0.2982
      7 O1          0.0405   -0.3493    2.4450 O.3       1 <0>        -0.1334
      8 C6          1.3490   -0.2637    3.0128 C.3       1 <0>        -0.0114
      9 C7         -0.2302   -3.2236    1.4766 C.2       1 <0>         0.3154
     10 C8          0.2659   -4.4874    1.1646 C.2       1 <0>        -0.3101
     11 C9          0.1104   -5.5507    2.1866 C.2       1 <0>         0.4003
     12 C10        -0.5777   -5.2533    3.3836 C.2       1 <0>        -0.2701
     13 C11        -1.0711   -4.0154    3.5772 C.2       1 <0>         0.1360
     14 N2         -0.9120   -3.0372    2.6565 N.pl3     1 <0>        -0.5937
     15 O2          0.5704   -6.6655    1.9965 O.2       1 <0>        -0.4628
     16 C12         0.8543   -4.8894   -0.0422 C.2       1 <0>         0.3957
     17 O3          1.2668   -6.0313   -0.0643 O.2       1 <0>        -0.4366
     18 C13         1.0429   -4.1312   -1.2797 C.3       1 <0>        -0.1599
     19 C14        -0.0853   -3.1919   -1.6433 C.3       1 <0>        -0.0498
     20 O4          0.1588   -0.1663   -2.3942 O.3       1 <0>        -0.4609
     21 H1          1.2821    1.8742    0.1258 H         1 <0>         0.0787
     22 H2         -0.2328    2.0334   -0.7949 H         1 <0>         0.0950
     23 H3         -0.2759    1.9543    0.9828 H         1 <0>         0.0755
     24 H4          1.2711    0.0035    4.0667 H         1 <0>         0.1266
     25 H5          1.8498   -1.2273    2.9184 H         1 <0>         0.0660
     26 H6          1.9244    0.4979    2.4865 H         1 <0>         0.0697
     27 H7         -0.7078   -6.0142    4.1389 H         1 <0>         0.1558
     28 H8         -1.6068   -3.7984    4.4895 H         1 <0>         0.1707
     29 H9          1.9583   -3.5467   -1.1869 H         1 <0>         0.0966
     30 H10         1.1760   -4.8391   -2.0978 H         1 <0>         0.1036
     31 H11        -1.0401   -3.7001   -1.5082 H         1 <0>         0.0847
     32 H12         0.0193   -2.8825   -2.6833 H         1 <0>         0.0975
     33 H13         1.0599   -0.0972   -2.7381 H         1 <0>         0.3866
     34 H14        -1.2960   -2.1648    2.8366 H         1 <0>         0.4221
@<TRIPOS>BOND
     1    1    2 1
     2    1   21 1
     3    1   22 1
     4    1   23 1
     5    2    6 1
     6    2    3 2
     7    3    4 1
     8    3   20 1
     9    4   19 1
    10    4    5 2
    11    5    6 1
    12    5    9 1
    13    6    7 1
    14    7    8 1
    15    8   24 1
    16    8   25 1
    17    8   26 1
    18    9   14 1
    19    9   10 2
    20   10   11 1
    21   10   16 1
    22   11   12 1
    23   11   15 2
    24   12   13 2
    25   12   27 1
    26   13   14 1
    27   13   28 1
    28   14   34 1
    29   16   17 2
    30   16   18 1
    31   18   19 1
    32   18   29 1
    33   18   30 1
    34   19   31 1
    35   19   32 1
    36   20   33 1
@<TRIPOS>MOLECULE
ZINC45790982
   40    41     0     0     0
SMALL
USER_CHARGES

@<TRIPOS>ATOM
      1 C1         -0.0184    1.5028    0.0103 C.3       1 <0>        -0.0825
      2 C2          0.0021   -0.0041    0.0020 C.2       1 <0>         0.0405
      3 C3         -1.0934   -0.8170    0.0026 C.2       1 <0>        -0.1484
      4 C4         -0.5674   -2.1899   -0.0078 C.2       1 <0>        -0.7481
      5 C5          0.7692   -2.0727   -0.0136 C.2       1 <0>         0.1575
      6 O1          1.0965   -0.7711   -0.0130 O.3       1 <0>        -0.1606
      7 C6          1.7468   -3.2195   -0.0244 C.3       1 <0>        -0.1255
      8 S1         -1.5015   -3.6839   -0.0119 S.o2      1 <0>         2.7223
      9 O2         -0.6582   -4.6916    0.5291 O.2       1 <0>        -0.9629
     10 O3         -2.7701   -3.3713    0.5469 O.2       1 <0>        -0.9473
     11 N1         -1.7687   -4.0900   -1.5949 N.pl3     1 <0>        -1.2473
     12 C7         -2.5084   -0.4051    0.0122 C.2       1 <0>         0.5920
     13 O4         -3.0977   -0.2293   -1.0370 O.2       1 <0>        -0.5272
     14 N2         -3.1494   -0.2234    1.1838 N.am      1 <0>        -0.5893
     15 C8         -2.4493   -0.4260    2.4595 C.3       1 <0>         0.1080
     16 C9         -3.2546   -1.4109    3.3129 C.3       1 <0>        -0.1428
     17 C10        -4.6896   -0.8991    3.4579 C.3       1 <0>        -0.1124
     18 C11        -5.3432   -0.8100    2.0770 C.3       1 <0>        -0.1085
     19 H1         -5.3328   -1.7927    1.6055 H         1 <0>         0.0846
     20 C12        -4.5600    0.1871    1.2095 C.3       1 <0>         0.1177
     21 C13        -6.7884   -0.3304    2.2260 C.3       1 <0>        -0.1457
     22 H2          1.0042    1.8801    0.0026 H         1 <0>         0.0886
     23 H3         -0.5455    1.8639   -0.8728 H         1 <0>         0.0966
     24 H4         -0.5286    1.8543    0.9071 H         1 <0>         0.0935
     25 H5          1.9776   -3.4905   -1.0547 H         1 <0>         0.1034
     26 H6          2.6623   -2.9214    0.4866 H         1 <0>         0.0974
     27 H7          1.3077   -4.0762    0.4869 H         1 <0>         0.1321
     28 H8         -1.4227   -3.5270   -2.3051 H         1 <0>         0.4181
     29 H9         -2.2712   -4.8908   -1.8121 H         1 <0>         0.4222
     30 H10        -1.4561   -0.8335    2.2705 H         1 <0>         0.0789
     31 H11        -2.3623    0.5256    2.9838 H         1 <0>         0.0711
     32 H12        -3.2639   -2.3879    2.8298 H         1 <0>         0.0838
     33 H13        -2.7975   -1.4963    4.2987 H         1 <0>         0.0745
     34 H14        -5.2583   -1.5855    4.0852 H         1 <0>         0.0674
     35 H15        -4.6780    0.0887    3.9186 H         1 <0>         0.0623
     36 H16        -4.6416    1.1877    1.6340 H         1 <0>         0.0696
     37 H17        -4.9599    0.1843    0.1956 H         1 <0>         0.0940
     38 H18        -6.7982    0.6528    2.6965 H         1 <0>         0.0555
     39 H19        -7.2535   -0.2671    1.2422 H         1 <0>         0.0576
     40 H20        -7.3431   -1.0351    2.8455 H         1 <0>         0.0594
@<TRIPOS>BOND
     1    1    2 1
     2    1   22 1
     3    1   23 1
     4    1   24 1
     5    2    6 1
     6    2    3 2
     7    3    4 1
     8    3   12 1
     9    4    5 2
    10    4    8 1
    11    5    6 1
    12    5    7 1
    13    7   25 1
    14    7   26 1
    15    7   27 1
    16    8    9 2
    17    8   10 2
    18    8   11 1
    19   11   28 1
    20   11   29 1
    21   12   13 2
    22   12   14 am
    23   14   20 1
    24   14   15 1
    25   15   16 1
    26   15   30 1
    27   15   31 1
    28   16   17 1
    29   16   32 1
    30   16   33 1
    31   17   18 1
    32   17   34 1
    33   17   35 1
    34   18   19 1
    35   18   20 1
    36   18   21 1
    37   20   36 1
    38   20   37 1
    39   21   38 1
    40   21   39 1
    41   21   40 1
@<TRIPOS>MOLECULE
ZINC52000289
   44    45     0     0     0
SMALL
USER_CHARGES

@<TRIPOS>ATOM
      1 C1         -0.0225    1.8097    0.0120 C.3       1 <0>        -0.6733
      2 S1          0.0021   -0.0041    0.0020 S.o2      1 <0>         2.6092
      3 O1          0.8352   -0.4880    1.0465 O.2       1 <0>        -0.9517
      4 O2         -1.3147   -0.5105   -0.1678 O.2       1 <0>        -0.9539
      5 N1          0.7947   -0.4113   -1.3938 N.pl3     1 <0>        -1.0014
      6 C2          0.0529   -0.6008   -2.6478 C.3       1 <0>         0.1138
      7 C3          0.4032   -1.9761   -3.2248 C.3       1 <0>        -0.1301
      8 C4          1.9223   -2.0924   -3.3693 C.3       1 <0>        -0.1081
      9 C5          2.5787   -1.9647   -1.9927 C.3       1 <0>        -0.1200
     10 H1          2.1959   -2.7437   -1.3335 H         1 <0>         0.1052
     11 C6          2.2538   -0.5838   -1.4030 C.3       1 <0>         0.1382
     12 C7          4.0719   -2.1124   -2.1319 C.2       1 <0>         0.5241
     13 O3          4.8052   -1.2088   -1.7899 O.2       1 <0>        -0.5385
     14 N2          4.5926   -3.2486   -2.6363 N.am      1 <0>        -0.7123
     15 C8          6.0443   -3.3922   -2.7715 C.3       1 <0>         0.1550
     16 H2          6.5384   -2.8841   -1.9434 H         1 <0>         0.0950
     17 C9          6.4972   -2.7707   -4.0942 C.3       1 <0>        -0.1296
     18 C10         5.8037   -3.4838   -5.2567 C.3       1 <0>        -0.1207
     19 C11         6.1733   -4.9684   -5.2377 C.3       1 <0>        -0.1195
     20 C12         5.7203   -5.5899   -3.9150 C.3       1 <0>        -0.1533
     21 C13         6.4139   -4.8767   -2.7526 C.3       1 <0>         0.0964
     22 H3          7.4940   -4.9836   -2.8532 H         1 <0>         0.0702
     23 O4          5.9909   -5.4572   -1.5172 O.3       1 <0>        -0.5617
     24 H4          1.0001    2.1870    0.0043 H         1 <0>         0.1286
     25 H5         -0.5497    2.1708   -0.8711 H         1 <0>         0.1274
     26 H6         -0.5327    2.1613    0.9088 H         1 <0>         0.1287
     27 H7         -1.0178   -0.5493   -2.4504 H         1 <0>         0.0971
     28 H8          0.3332    0.1760   -3.3592 H         1 <0>         0.0713
     29 H9          0.0409   -2.7550   -2.5539 H         1 <0>         0.0730
     30 H10        -0.0651   -2.0905   -4.2024 H         1 <0>         0.0818
     31 H11         2.1728   -3.0607   -3.8026 H         1 <0>         0.0696
     32 H12         2.2870   -1.2980   -4.0206 H         1 <0>         0.0724
     33 H13         2.7099    0.1944   -2.0150 H         1 <0>         0.0807
     34 H14         2.6356   -0.5210   -0.3841 H         1 <0>         0.1022
     35 H15         4.0062   -3.9712   -2.9098 H         1 <0>         0.4000
     36 H16         6.2339   -1.7131   -4.1078 H         1 <0>         0.0761
     37 H17         7.5773   -2.8775   -4.1949 H         1 <0>         0.0750
     38 H18         4.7236   -3.3770   -5.1561 H         1 <0>         0.0635
     39 H19         6.1263   -3.0411   -6.1990 H         1 <0>         0.0666
     40 H20         5.6792   -5.4765   -6.0659 H         1 <0>         0.0677
     41 H21         7.2533   -5.0752   -5.3384 H         1 <0>         0.0661
     42 H22         4.6403   -5.4830   -3.8144 H         1 <0>         0.0682
     43 H23         5.9837   -6.6475   -3.9015 H         1 <0>         0.0702
     44 H24         6.1932   -6.3992   -1.4355 H         1 <0>         0.3805
@<TRIPOS>BOND
     1    1    2 1
     2    1   24 1
     3    1   25 1
     4    1   26 1
     5    2    3 2
     6    2    4 2
     7    2    5 1
     8    5   11 1
     9    5    6 1
    10    6    7 1
    11    6   27 1
    12    6   28 1
    13    7    8 1
    14    7   29 1
    15    7   30 1
    16    8    9 1
    17    8   31 1
    18    8   32 1
    19    9   10 1
    20    9   11 1
    21    9   12 1
    22   11   33 1
    23   11   34 1
    24   12   13 2
    25   12   14 am
    26   14   15 1
    27   14   35 1
    28   15   16 1
    29   15   21 1
    30   15   17 1
    31   17   18 1
    32   17   36 1
    33   17   37 1
    34   18   19 1
    35   18   38 1
    36   18   39 1
    37   19   20 1
    38   19   40 1
    39   19   41 1
    40   20   21 1
    41   20   42 1
    42   20   43 1
    43   21   22 1
    44   21   23 1
    45   23   44 1
