@<TRIPOS>MOLECULE
2HV5-ZST
 40 43 0 0 0
SMALL
SF_CHARGES


@<TRIPOS>ATOM
1    C        17.7160   -9.3260   15.0530  C.2        1 SUBUNIT      0.6740
2    O        17.9920   -9.9540   14.0320  O.2        1 SUBUNIT     -0.5365
3    C        16.7750   -9.8380   16.0140  C.2        1 SUBUNIT     -0.0357
4    C        16.4560   -9.0880   17.1530  C.2        1 SUBUNIT     -0.0208
5    C        17.0780   -7.8000   17.3100  C.2        1 SUBUNIT      0.2580
6    C        16.2030  -11.1010   15.7970  C.2        1 SUBUNIT     -0.0968
7    C        15.3290  -11.6090   16.7030  C.2        1 SUBUNIT     -0.0930
8    C        14.9950  -10.8800   17.8280  C.2        1 SUBUNIT     -0.0946
9    C        15.5470   -9.6570   18.0540  C.2        1 SUBUNIT     -0.1011
10   N        18.1990   -8.0690   15.3360  N.am       1 SUBUNIT     -0.3220
11   N        17.8930   -7.3110   16.4580  N.2        1 SUBUNIT     -0.3424
12   C        19.1540   -7.3550   14.4790  C.3        1 SUBUNIT      0.1500
13   C        18.2270   -6.5890   13.4910  C.2        1 SUBUNIT      0.2277
14   C        16.2890   -5.7090   12.1920  C.2        1 SUBUNIT     -0.0325
15   C        17.5390   -5.1880   11.8500  C.2        1 SUBUNIT      0.2708
16   C        15.0850   -5.3390   11.5680  C.2        1 SUBUNIT     -0.0999
17   C        15.1920   -4.3990   10.5830  C.2        1 SUBUNIT     -0.0981
18   C        16.4170   -3.8740   10.2300  C.2        1 SUBUNIT     -0.0686
19   C        17.5920   -4.2360   10.8310  C.2        1 SUBUNIT     -0.1213
20   N        18.6110   -5.7150   12.6150  N.2        1 SUBUNIT     -0.5015
21   S        16.5040   -6.8360   13.4530  S.3        1 SUBUNIT     -0.0195
22   C        16.7530   -6.8810   18.4570  C.3        1 SUBUNIT     -0.0619
23   C        15.4340   -6.2000   18.2400  C.2        1 SUBUNIT      0.7608
24   O        14.9900   -5.9970   17.0650  O.co2      1 SUBUNIT     -0.8759
25   O        14.9100   -5.6390   19.2330  O.co2      1 SUBUNIT     -0.8759
26   C        16.4440   -2.8420    9.1320  C.3        1 SUBUNIT      0.8037
27   F        15.6460   -1.8210    9.4710  F          1 SUBUNIT     -0.2599
28   F        16.1220   -3.2160    7.9300  F          1 SUBUNIT     -0.2599
29   F        17.6230   -2.2420    9.0320  F          1 SUBUNIT     -0.2599
30   H        16.4453  -11.6776   14.9214  H          1 SUBUNIT      0.1272
31   H        14.9005  -12.5819   16.5366  H          1 SUBUNIT      0.1260
32   H        14.2910  -11.2772   18.5383  H          1 SUBUNIT      0.1247
33   H        15.2697   -9.1273   18.9486  H          1 SUBUNIT      0.1232
34   H        19.7651   -6.6692   15.0750  H          1 SUBUNIT      0.0423
35   H        19.8045   -8.0642   13.9565  H          1 SUBUNIT      0.0423
36   H        14.1329   -5.7609   11.8386  H          1 SUBUNIT      0.1179
37   H        14.3028   -4.0658   10.0770  H          1 SUBUNIT      0.1163
38   H        18.5228   -3.7945   10.5204  H          1 SUBUNIT      0.1148
39   H        16.7063   -7.4643   19.3825  H          1 SUBUNIT      0.0490
40   H        17.5376   -6.1220   18.5425  H          1 SUBUNIT      0.0490
@<TRIPOS>BOND
     1    1    2 2
     2    1    3 1
     3    1   10 1
     4    3    4 2
     5    3    6 1
     6    4    5 1
     7    4    9 1
     8    5   11 2
     9    5   22 1
    10    6    7 2
    11    7    8 1
    12    8    9 2
    13   10   11 1
    14   10   12 1
    15   12   13 1
    16   13   20 2
    17   13   21 1
    18   14   15 2
    19   14   16 1
    20   14   21 1
    21   15   19 1
    22   15   20 1
    23   16   17 2
    24   17   18 1
    25   18   19 2
    26   18   26 1
    27   22   23 1
    28   23   24 2
    29   23   25 1
    30   26   27 1
    31   26   28 1
    32   26   29 1
    33    6   30 1
    34    7   31 1
    35    8   32 1
    36    9   33 1
    37   12   34 1
    38   12   35 1
    39   16   36 1
    40   17   37 1
    41   19   38 1
    42   22   39 1
    43   22   40 1
