@<TRIPOS>MOLECULE
CHEMBL104592
   34    36     0     0     0
SMALL
USER_CHARGES

@<TRIPOS>ATOM
      1 C1         -0.0187    1.5258    0.0104 C.3       1 <0>        -0.1114
      2 C2          0.0021   -0.0041    0.0020 C.3       1 <0>        -0.1357
      3 C3         -1.4117   -0.5257    0.0127 C.ar      1 <0>        -0.0198
      4 C4         -2.2575   -0.2025    1.0584 C.ar      1 <0>        -0.1109
      5 C5         -3.5532   -0.6779    1.0735 C.ar      1 <0>        -0.1080
      6 C6         -4.0088   -1.4843    0.0326 C.ar      1 <0>        -0.0697
      7 C7         -3.1527   -1.8063   -1.0185 C.ar      1 <0>        -0.1097
      8 C8         -1.8606   -1.3212   -1.0260 C.ar      1 <0>        -0.1212
      9 C9         -5.4007   -1.9987    0.0436 C.ar      1 <0>        -0.0501
     10 C10        -6.2587   -1.6688    1.0980 C.ar      1 <0>        -0.0885
     11 C11        -7.5418   -2.1334    1.1237 C.ar      1 <0>        -0.1287
     12 C12        -8.0134   -2.9451    0.0956 C.ar      1 <0>         0.0874
     13 C13        -7.1595   -3.2833   -0.9707 C.ar      1 <0>        -0.1065
     14 C14        -5.8507   -2.8016   -0.9950 C.ar      1 <0>        -0.0694
     15 C15        -7.9475   -4.1330   -1.8674 C.2       1 <0>        -0.2034
     16 C16        -9.1676   -4.2535   -1.3212 C.2       1 <0>         0.0436
     17 N1         -9.2257   -3.5509   -0.1486 N.pl3     1 <0>        -0.5988
     18 H1        -10.0051   -3.4887    0.4255 H         1 <0>         0.4129
     19 C17         0.7309   -0.5033    1.2229 C.2       1 <0>         0.5022
     20 O1          1.1912    0.2909    2.0254 O.co2     1 <0>        -0.6930
     21 O2          0.8604   -1.7014    1.4082 O.co2     1 <0>        -0.6938
     22 H2          1.0039    1.9031    0.0027 H         1 <0>         0.0540
     23 H3         -0.5459    1.8868   -0.8726 H         1 <0>         0.0329
     24 H4         -0.5289    1.8773    0.9072 H         1 <0>         0.0532
     25 H5          0.5123   -0.3556   -0.8948 H         1 <0>         0.0699
     26 H6         -1.9033    0.4226    1.8647 H         1 <0>         0.1220
     27 H7         -4.2125   -0.4255    1.8908 H         1 <0>         0.1182
     28 H8         -3.5007   -2.4310   -1.8278 H         1 <0>         0.1179
     29 H9         -1.1974   -1.5666   -1.8424 H         1 <0>         0.1179
     30 H10        -5.9020   -1.0400    1.9004 H         1 <0>         0.1293
     31 H11        -8.1931   -1.8709    1.9442 H         1 <0>         0.1183
     32 H12        -5.1920   -3.0548   -1.8125 H         1 <0>         0.1262
     33 H13        -7.6107   -4.5776   -2.7922 H         1 <0>         0.1450
     34 H14        -9.9829   -4.8214   -1.7445 H         1 <0>         0.1676
@<TRIPOS>BOND
     1    1    2 1
     2    1   22 1
     3    1   23 1
     4    1   24 1
     5    2    3 1
     6    2   19 1
     7    2   25 1
     8    3    8 ar
     9    3    4 ar
    10    4    5 ar
    11    4   26 1
    12    5    6 ar
    13    5   27 1
    14    6    7 ar
    15    6    9 1
    16    7    8 ar
    17    7   28 1
    18    8   29 1
    19    9   14 ar
    20    9   10 ar
    21   10   11 ar
    22   10   30 1
    23   11   12 ar
    24   11   31 1
    25   12   17 1
    26   12   13 ar
    27   13   14 ar
    28   13   15 1
    29   14   32 1
    30   15   16 2
    31   15   33 1
    32   16   17 1
    33   16   34 1
    34   17   18 1
    35   19   20 2
    36   19   21 1
@<TRIPOS>MOLECULE
CHEMBL104592__1
   34    36     0     0     0
SMALL
USER_CHARGES

@<TRIPOS>ATOM
      1 C1         -0.0187    1.5258    0.0104 C.3       1 <0>        -0.1174
      2 C2          0.0021   -0.0041    0.0020 C.3       1 <0>        -0.1357
      3 C3          0.7309   -0.5033    1.2229 C.ar      1 <0>        -0.0218
      4 C4          0.2605   -0.1855    2.4842 C.ar      1 <0>        -0.0786
      5 C5          0.9243   -0.6397    3.6058 C.ar      1 <0>        -0.1136
      6 C6          2.0702   -1.4200    3.4658 C.ar      1 <0>        -0.0692
      7 C7          2.5394   -1.7374    2.1928 C.ar      1 <0>        -0.1149
      8 C8          1.8647   -1.2823    1.0780 C.ar      1 <0>        -0.1282
      9 C9          2.7884   -1.9107    4.6680 C.ar      1 <0>        -0.0485
     10 C10         2.3111   -1.5943    5.9442 C.ar      1 <0>        -0.0883
     11 C11         2.9596   -2.0375    7.0603 C.ar      1 <0>        -0.1291
     12 C12         4.1093   -2.8135    6.9407 C.ar      1 <0>         0.0866
     13 C13         4.5987   -3.1387    5.6618 C.ar      1 <0>        -0.1065
     14 C14         3.9293   -2.6877    4.5242 C.ar      1 <0>        -0.0707
     15 C15         5.7990   -3.9498    5.8812 C.2       1 <0>        -0.2039
     16 C16         5.9583   -4.0626    7.2092 C.2       1 <0>         0.0433
     17 N1          4.9587   -3.3906    7.8581 N.pl3     1 <0>        -0.5989
     18 H1          4.8626   -3.3296    8.8214 H         1 <0>         0.4127
     19 C17        -1.4117   -0.5257    0.0127 C.2       1 <0>         0.5000
     20 O1         -2.1751   -0.2365   -0.8929 O.co2     1 <0>        -0.6991
     21 O2         -1.7922   -1.2369    0.9270 O.co2     1 <0>        -0.6856
     22 H2          1.0039    1.9031    0.0027 H         1 <0>         0.0402
     23 H3         -0.5459    1.8868   -0.8726 H         1 <0>         0.0592
     24 H4         -0.5289    1.8773    0.9072 H         1 <0>         0.0474
     25 H5          0.5123   -0.3556   -0.8948 H         1 <0>         0.0701
     26 H6         -0.6278    0.4194    2.5916 H         1 <0>         0.1188
     27 H7          0.5565   -0.3904    4.5902 H         1 <0>         0.1162
     28 H8          3.4271   -2.3419    2.0785 H         1 <0>         0.1156
     29 H9          2.2250   -1.5314    0.0909 H         1 <0>         0.1148
     30 H10         1.4202   -0.9926    6.0475 H         1 <0>         0.1295
     31 H11         2.5799   -1.7852    8.0394 H         1 <0>         0.1179
     32 H12         4.2981   -2.9372    3.5403 H         1 <0>         0.1257
     33 H13         6.4347   -4.3761    5.1192 H         1 <0>         0.1447
     34 H14         6.7576   -4.6037    7.6938 H         1 <0>         0.1673
@<TRIPOS>BOND
     1    1    2 1
     2    1   22 1
     3    1   23 1
     4    1   24 1
     5    2    3 1
     6    2   19 1
     7    2   25 1
     8    3    8 ar
     9    3    4 ar
    10    4    5 ar
    11    4   26 1
    12    5    6 ar
    13    5   27 1
    14    6    7 ar
    15    6    9 1
    16    7    8 ar
    17    7   28 1
    18    8   29 1
    19    9   14 ar
    20    9   10 ar
    21   10   11 ar
    22   10   30 1
    23   11   12 ar
    24   11   31 1
    25   12   17 1
    26   12   13 ar
    27   13   14 ar
    28   13   15 1
    29   14   32 1
    30   15   16 2
    31   15   33 1
    32   16   17 1
    33   16   34 1
    34   17   18 1
    35   19   20 2
    36   19   21 1
@<TRIPOS>MOLECULE
CHEMBL441663
   40    43     0     0     0
SMALL
USER_CHARGES

@<TRIPOS>ATOM
      1 C1         -0.0169    1.3920    0.0097 C.ar      1 <0>        -0.0838
      2 C2          1.1695    2.0951    0.0021 C.ar      1 <0>        -0.1496
      3 C3          2.3789    1.4186   -0.0135 C.ar      1 <0>         0.1018
      4 C4          2.4037    0.0330   -0.0216 C.ar      1 <0>        -0.1487
      5 C5          1.2234   -0.6804   -0.0142 C.ar      1 <0>        -0.0675
      6 C6          0.0021   -0.0041    0.0020 C.ar      1 <0>        -0.0304
      7 C7         -1.2658   -0.7630    0.0105 C.2       1 <0>         0.0657
      8 C8         -1.5458   -1.8392    0.7875 C.2       1 <0>        -0.1314
      9 C9         -2.8524   -2.2574    0.4849 C.2       1 <0>        -0.1312
     10 C10        -3.3422   -1.4257   -0.4684 C.2       1 <0>         0.0653
     11 N1         -2.3709   -0.4987   -0.7631 N.pl3     1 <0>        -0.5501
     12 H1         -2.4510    0.2197   -1.4099 H         1 <0>         0.4151
     13 C11        -4.6859   -1.4999   -1.0789 C.ar      1 <0>        -0.0294
     14 C12        -5.2039   -2.7311   -1.4852 C.ar      1 <0>        -0.0697
     15 C13        -6.4587   -2.7945   -2.0539 C.ar      1 <0>        -0.1483
     16 C14        -7.2051   -1.6390   -2.2223 C.ar      1 <0>         0.1014
     17 C15        -6.6957   -0.4142   -1.8213 C.ar      1 <0>        -0.1491
     18 C16        -5.4445   -0.3397   -1.2462 C.ar      1 <0>        -0.0843
     19 F1         -8.4338   -1.7069   -2.7800 F         1 <0>        -0.1372
     20 C17        -3.5249   -3.4363    1.1426 C.3       1 <0>        -0.0513
     21 C18        -2.4435   -4.2860    1.8222 C.3       1 <0>        -0.1161
     22 C19        -1.5596   -3.3952    2.6978 C.3       1 <0>        -0.1165
     23 C20        -0.6687   -2.5161    1.8108 C.3       1 <0>        -0.0492
     24 F2          3.5381    2.1124   -0.0213 F         1 <0>        -0.1372
     25 H2         -0.9587    1.9202    0.0260 H         1 <0>         0.1303
     26 H3          1.1561    3.1750    0.0081 H         1 <0>         0.1385
     27 H4          3.3490   -0.4891   -0.0342 H         1 <0>         0.1406
     28 H5          1.2439   -1.7602   -0.0213 H         1 <0>         0.1384
     29 H6         -4.6229   -3.6321   -1.3547 H         1 <0>         0.1395
     30 H7         -6.8603   -3.7463   -2.3688 H         1 <0>         0.1407
     31 H8         -7.2816    0.4832   -1.9553 H         1 <0>         0.1385
     32 H9         -5.0504    0.6147   -0.9296 H         1 <0>         0.1303
     33 H10        -4.2383   -3.0842    1.8877 H         1 <0>         0.0704
     34 H11        -4.0419   -4.0318    0.3901 H         1 <0>         0.0698
     35 H12        -2.9170   -5.0477    2.4416 H         1 <0>         0.0642
     36 H13        -1.8304   -4.7688    1.0611 H         1 <0>         0.0635
     37 H14        -2.1894   -2.7604    3.3211 H         1 <0>         0.0632
     38 H15        -0.9333   -4.0199    3.3347 H         1 <0>         0.0643
     39 H16         0.0738   -3.1351    1.3071 H         1 <0>         0.0698
     40 H17        -0.1686   -1.7645    2.4216 H         1 <0>         0.0695
@<TRIPOS>BOND
     1    1    6 ar
     2    1    2 ar
     3    1   25 1
     4    2    3 ar
     5    2   26 1
     6    3    4 ar
     7    3   24 1
     8    4    5 ar
     9    4   27 1
    10    5    6 ar
    11    5   28 1
    12    6    7 1
    13    7   11 1
    14    7    8 2
    15    8   23 1
    16    8    9 1
    17    9   10 2
    18    9   20 1
    19   10   11 1
    20   10   13 1
    21   11   12 1
    22   13   18 ar
    23   13   14 ar
    24   14   15 ar
    25   14   29 1
    26   15   16 ar
    27   15   30 1
    28   16   17 ar
    29   16   19 1
    30   17   18 ar
    31   17   31 1
    32   18   32 1
    33   20   21 1
    34   20   33 1
    35   20   34 1
    36   21   22 1
    37   21   35 1
    38   21   36 1
    39   22   23 1
    40   22   37 1
    41   22   38 1
    42   23   39 1
    43   23   40 1
@<TRIPOS>MOLECULE
CHEMBL229957
   46    48     0     0     0
SMALL
USER_CHARGES

@<TRIPOS>ATOM
      1 C1         -0.0173    1.4248    0.0099 C.3       1 <0>         0.0265
      2 O1          0.0021   -0.0041    0.0020 O.3       1 <0>        -0.3170
      3 C2          0.6057   -0.6070   -1.0555 C.ar      1 <0>         0.1328
      4 C3          1.1722    0.1658   -2.0612 C.ar      1 <0>        -0.2119
      5 C4          1.7785   -0.4408   -3.1410 C.ar      1 <0>        -0.0628
      6 C5          1.8153   -1.8326   -3.2229 C.ar      1 <0>        -0.0895
      7 C6          1.2617   -2.6076   -2.1984 C.ar      1 <0>        -0.0337
      8 C7          0.6585   -1.9935   -1.1234 C.ar      1 <0>        -0.1494
      9 C8          1.3579   -4.1090   -2.2668 C.3       1 <0>        -0.0789
     10 C9          1.2498   -4.5755   -3.7166 C.3       1 <0>        -0.0760
     11 C10         2.1983   -3.8066   -4.5952 C.2       1 <0>        -0.0622
     12 C11         2.4500   -2.5084   -4.3673 C.2       1 <0>        -0.1007
     13 C12         2.8599   -4.4879   -5.7206 C.ar      1 <0>        -0.0960
     14 C13         3.9116   -5.3774   -5.4817 C.ar      1 <0>        -0.0558
     15 C14         4.5294   -6.0139   -6.5366 C.ar      1 <0>        -0.2016
     16 C15         4.1119   -5.7753   -7.8395 C.ar      1 <0>         0.1250
     17 C16         3.0671   -4.8922   -8.0895 C.ar      1 <0>         0.0443
     18 C17         2.4338   -4.2513   -7.0347 C.ar      1 <0>         0.1304
     19 O2          1.4080   -3.3925   -7.2751 O.3       1 <0>        -0.3235
     20 C18         1.7464   -2.0201   -7.4851 C.3       1 <0>         0.0352
     21 O3          2.6623   -4.6612   -9.3682 O.3       1 <0>        -0.3197
     22 C19         1.6370   -5.5103   -9.8876 C.3       1 <0>         0.0380
     23 O4          4.7271   -6.4071   -8.8743 O.3       1 <0>        -0.3041
     24 C20         5.7931   -7.3007   -8.5473 C.3       1 <0>         0.0234
     25 H1          1.0053    1.8021    0.0021 H         1 <0>         0.0563
     26 H2         -0.5445    1.7859   -0.8732 H         1 <0>         0.0564
     27 H3         -0.5275    1.7763    0.9067 H         1 <0>         0.1013
     28 H4          1.1375    1.2434   -1.9976 H         1 <0>         0.1295
     29 H5          2.2229    0.1598   -3.9208 H         1 <0>         0.1268
     30 H6          0.2230   -2.5898   -0.3353 H         1 <0>         0.1325
     31 H7          2.3148   -4.4291   -1.8544 H         1 <0>         0.0823
     32 H8          0.5494   -4.5500   -1.6839 H         1 <0>         0.0837
     33 H9          1.4908   -5.6371   -3.7710 H         1 <0>         0.0791
     34 H10         0.2297   -4.4212   -4.0682 H         1 <0>         0.0812
     35 H11         3.1150   -1.9619   -5.0195 H         1 <0>         0.1191
     36 H12         4.2403   -5.5657   -4.4703 H         1 <0>         0.1364
     37 H13         5.3417   -6.7007   -6.3494 H         1 <0>         0.1388
     38 H14         2.2528   -1.6315   -6.6015 H         1 <0>         0.0507
     39 H15         2.4067   -1.9367   -8.3484 H         1 <0>         0.0511
     40 H16         0.8380   -1.4454   -7.6655 H         1 <0>         0.0952
     41 H17         1.9792   -6.5451   -9.8711 H         1 <0>         0.0452
     42 H18         0.7407   -5.4143   -9.2748 H         1 <0>         0.0486
     43 H19         1.4089   -5.2193  -10.9129 H         1 <0>         0.0937
     44 H20         6.5802   -6.7531   -8.0289 H         1 <0>         0.0583
     45 H21         5.4169   -8.0943   -7.9017 H         1 <0>         0.0576
     46 H22         6.1955   -7.7364   -9.4619 H         1 <0>         0.1035
@<TRIPOS>BOND
     1    1    2 1
     2    1   25 1
     3    1   26 1
     4    1   27 1
     5    2    3 1
     6    3    8 ar
     7    3    4 ar
     8    4    5 ar
     9    4   28 1
    10    5    6 ar
    11    5   29 1
    12    6   12 1
    13    6    7 ar
    14    7    8 ar
    15    7    9 1
    16    8   30 1
    17    9   10 1
    18    9   31 1
    19    9   32 1
    20   10   11 1
    21   10   33 1
    22   10   34 1
    23   11   12 2
    24   11   13 1
    25   12   35 1
    26   13   18 ar
    27   13   14 ar
    28   14   15 ar
    29   14   36 1
    30   15   16 ar
    31   15   37 1
    32   16   17 ar
    33   16   23 1
    34   17   18 ar
    35   17   21 1
    36   18   19 1
    37   19   20 1
    38   20   38 1
    39   20   39 1
    40   20   40 1
    41   21   22 1
    42   22   41 1
    43   22   42 1
    44   22   43 1
    45   23   24 1
    46   24   44 1
    47   24   45 1
    48   24   46 1
@<TRIPOS>MOLECULE
CHEMBL64396
   42    46     0     0     0
SMALL
USER_CHARGES

@<TRIPOS>ATOM
      1 C1          0.0108    1.3940   -0.0056 C.ar      1 <0>        -0.1263
      2 C2          1.1939    2.1193   -0.0237 C.ar      1 <0>        -0.0706
      3 C3          2.3949    1.4470   -0.0427 C.ar      1 <0>        -0.0952
      4 C4          2.3991    0.0683   -0.0435 C.ar      1 <0>         0.1218
      5 C5          1.2284   -0.6603   -0.0266 C.ar      1 <0>        -0.1092
      6 C6          0.0250    0.0071   -0.0072 C.ar      1 <0>        -0.0396
      7 C7          1.6686   -2.1028   -0.0350 C.3       1 <0>        -0.0914
      8 C8          3.1840   -2.0308   -0.0571 C.2       1 <0>         0.5401
      9 O1          3.9456   -2.9747   -0.0706 O.2       1 <0>        -0.4684
     10 N1          3.5329   -0.7209   -0.0597 N.am      1 <0>        -0.4868
     11 C9          4.8076   -0.1233   -0.0758 C.ar      1 <0>         0.1385
     12 C10         5.9356   -0.9360   -0.0867 C.ar      1 <0>        -0.1091
     13 C11         7.1944   -0.3698   -0.1031 C.ar      1 <0>        -0.1278
     14 C12         7.3380    1.0078   -0.1083 C.ar      1 <0>         0.0948
     15 C13         6.2164    1.8205   -0.0966 C.ar      1 <0>        -0.1241
     16 C14         4.9574    1.2564   -0.0793 C.ar      1 <0>        -0.0679
     17 C15         3.7325    2.1495   -0.0628 C.3       1 <0>        -0.0427
     18 F1          8.5715    1.5586   -0.1244 F         1 <0>        -0.1327
     19 C16         1.1561   -2.8032   -1.2670 C.2       1 <0>         0.5398
     20 O2          0.4893   -2.1950   -2.0772 O.2       1 <0>        -0.4858
     21 N2          1.4388   -4.1055   -1.4685 N.am      1 <0>        -0.6617
     22 C17         0.8862   -4.7806   -2.5639 C.ar      1 <0>         0.1433
     23 C18         0.6866   -4.1125   -3.7639 C.ar      1 <0>        -0.1335
     24 C19         0.1408   -4.7822   -4.8444 C.ar      1 <0>         0.1139
     25 C20        -0.2061   -6.1181   -4.7294 C.ar      1 <0>        -0.1365
     26 C21        -0.0088   -6.7860   -3.5351 C.ar      1 <0>        -0.1027
     27 C22         0.5417   -6.1232   -2.4532 C.ar      1 <0>         0.0673
     28 F2          0.7394   -6.7781   -1.2883 F         1 <0>        -0.1297
     29 F3         -0.0542   -4.1325   -6.0127 F         1 <0>        -0.1282
     30 H1         -0.9341    1.9168    0.0145 H         1 <0>         0.1374
     31 H2          1.1725    3.1991   -0.0231 H         1 <0>         0.1403
     32 H3         -0.9027   -0.5457    0.0072 H         1 <0>         0.1361
     33 H4          1.3242   -2.6118    0.8652 H         1 <0>         0.1634
     34 H5          5.8270   -2.0105   -0.0821 H         1 <0>         0.1550
     35 H6          8.0696   -1.0026   -0.1114 H         1 <0>         0.1462
     36 H7          6.3273    2.8948   -0.1003 H         1 <0>         0.1491
     37 H8          3.7668    2.7887   -0.9450 H         1 <0>         0.0963
     38 H9          3.7921    2.7909    0.8165 H         1 <0>         0.0967
     39 H10         2.0250   -4.5752   -0.8548 H         1 <0>         0.4244
     40 H11         0.9566   -3.0707   -3.8540 H         1 <0>         0.1608
     41 H12        -0.6320   -6.6389   -5.5742 H         1 <0>         0.1505
     42 H13        -0.2809   -7.8275   -3.4482 H         1 <0>         0.1540
@<TRIPOS>BOND
     1    1    6 ar
     2    1    2 ar
     3    1   30 1
     4    2    3 ar
     5    2   31 1
     6    3   17 1
     7    3    4 ar
     8    4   10 1
     9    4    5 ar
    10    5    6 ar
    11    5    7 1
    12    6   32 1
    13    7    8 1
    14    7   19 1
    15    7   33 1
    16    8    9 2
    17    8   10 am
    18   10   11 1
    19   11   16 ar
    20   11   12 ar
    21   12   13 ar
    22   12   34 1
    23   13   14 ar
    24   13   35 1
    25   14   15 ar
    26   14   18 1
    27   15   16 ar
    28   15   36 1
    29   16   17 1
    30   17   37 1
    31   17   38 1
    32   19   20 2
    33   19   21 am
    34   21   22 1
    35   21   39 1
    36   22   27 ar
    37   22   23 ar
    38   23   24 ar
    39   23   40 1
    40   24   25 ar
    41   24   29 1
    42   25   26 ar
    43   25   41 1
    44   26   27 ar
    45   26   42 1
    46   27   28 1
@<TRIPOS>MOLECULE
CHEMBL64396__1
   41    45     0     0     0
SMALL
USER_CHARGES

@<TRIPOS>ATOM
      1 C1          0.0261    1.3803    0.0036 C.ar      1 <0>        -0.1232
      2 C2          1.2081    2.1168   -0.0036 C.ar      1 <0>        -0.1452
      3 C3          2.4120    1.4550   -0.0179 C.ar      1 <0>        -0.0841
      4 C4          2.4179    0.0797   -0.0254 C.ar      1 <0>         0.0506
      5 C5          1.2505   -0.6776   -0.0168 C.ar      1 <0>         0.0173
      6 C6          0.0337   -0.0013   -0.0025 C.ar      1 <0>        -0.1259
      7 C7          1.7170   -2.0743   -0.0262 C.2       1 <0>        -0.4464
      8 C8          3.1075   -2.0275   -0.0406 C.2       1 <0>         0.4838
      9 O1          3.9220   -3.1062   -0.0509 O.3       1 <0>        -0.6731
     10 N1          3.5260   -0.7254   -0.0427 N.pl3     1 <0>        -0.4576
     11 C9          4.8064   -0.1442   -0.0589 C.ar      1 <0>         0.1764
     12 C10         5.9263   -0.9671   -0.0850 C.ar      1 <0>        -0.1160
     13 C11         7.1907   -0.4137   -0.1009 C.ar      1 <0>        -0.1296
     14 C12         7.3481    0.9623   -0.0902 C.ar      1 <0>         0.0613
     15 C13         6.2348    1.7858   -0.0647 C.ar      1 <0>        -0.1254
     16 C14         4.9697    1.2354   -0.0507 C.ar      1 <0>        -0.0929
     17 C15         3.7560    2.1460   -0.0271 C.3       1 <0>        -0.0288
     18 F1          8.5870    1.5009   -0.1041 F         1 <0>        -0.1461
     19 C16         0.8825   -3.2751   -0.0209 C.2       1 <0>         0.6490
     20 O2          0.5236   -3.7718   -1.0732 O.2       1 <0>        -0.5332
     21 N2          0.5105   -3.8321    1.1487 N.am      1 <0>        -0.6687
     22 C17        -0.3640   -4.9251    1.1565 C.ar      1 <0>         0.1664
     23 C18        -0.3072   -5.8685    0.1400 C.ar      1 <0>        -0.1380
     24 C19        -1.1729   -6.9476    0.1505 C.ar      1 <0>         0.1102
     25 C20        -2.0957   -7.0867    1.1738 C.ar      1 <0>        -0.1563
     26 C21        -2.1548   -6.1482    2.1875 C.ar      1 <0>        -0.1064
     27 C22        -1.2876   -5.0710    2.1859 C.ar      1 <0>         0.0499
     28 F2         -1.3420   -4.1577    3.1799 F         1 <0>        -0.1342
     29 F3         -1.1184   -7.8663   -0.8385 F         1 <0>        -0.1351
     30 H1         -0.9195    1.9019    0.0188 H         1 <0>         0.1112
     31 H2          1.1787    3.1964    0.0016 H         1 <0>         0.1166
     32 H3         -0.8956   -0.5516    0.0042 H         1 <0>         0.1111
     33 H4          5.8070   -2.0405   -0.0923 H         1 <0>         0.1621
     34 H5          8.0594   -1.0552   -0.1215 H         1 <0>         0.1357
     35 H6          6.3570    2.8588   -0.0554 H         1 <0>         0.1374
     36 H7          3.7994    2.7941   -0.9024 H         1 <0>         0.0803
     37 H8          3.8207    2.7762    0.8600 H         1 <0>         0.0804
     38 H9          0.8488   -3.4756    1.9849 H         1 <0>         0.4155
     39 H10         0.4117   -5.7601   -0.6586 H         1 <0>         0.1639
     40 H11        -2.7708   -7.9297    1.1798 H         1 <0>         0.1419
     41 H12        -2.8758   -6.2592    2.9839 H         1 <0>         0.1454
@<TRIPOS>BOND
     1    1    6 ar
     2    1    2 ar
     3    1   30 1
     4    2    3 ar
     5    2   31 1
     6    3   17 1
     7    3    4 ar
     8    4   10 1
     9    4    5 ar
    10    5    6 ar
    11    5    7 1
    12    6   32 1
    13    7    8 2
    14    7   19 1
    15    8    9 1
    16    8   10 1
    17   10   11 1
    18   11   16 ar
    19   11   12 ar
    20   12   13 ar
    21   12   33 1
    22   13   14 ar
    23   13   34 1
    24   14   15 ar
    25   14   18 1
    26   15   16 ar
    27   15   35 1
    28   16   17 1
    29   17   36 1
    30   17   37 1
    31   19   20 2
    32   19   21 am
    33   21   22 1
    34   21   38 1
    35   22   27 ar
    36   22   23 ar
    37   23   24 ar
    38   23   39 1
    39   24   25 ar
    40   24   29 1
    41   25   26 ar
    42   25   40 1
    43   26   27 ar
    44   26   41 1
    45   27   28 1
@<TRIPOS>MOLECULE
CHEMBL64396__2
   42    46     0     0     0
SMALL
USER_CHARGES

@<TRIPOS>ATOM
      1 C1         -0.0480    1.3714   -0.0012 C.ar      1 <0>        -0.1269
      2 C2          1.1298    2.1056   -0.0186 C.ar      1 <0>        -0.0706
      3 C3          2.3358    1.4421   -0.0380 C.ar      1 <0>        -0.0956
      4 C4          2.3501    0.0636   -0.0399 C.ar      1 <0>         0.1226
      5 C5          1.1849   -0.6737   -0.0238 C.ar      1 <0>        -0.1097
      6 C6         -0.0235   -0.0152   -0.0039 C.ar      1 <0>        -0.0399
      7 C7          1.6358   -2.1130   -0.0332 C.3       1 <0>        -0.0912
      8 C8          3.1506   -2.0297   -0.0551 C.2       1 <0>         0.5397
      9 O1          3.9192   -2.9679   -0.0693 O.2       1 <0>        -0.4651
     10 N1          3.4898   -0.7173   -0.0566 N.am      1 <0>        -0.4875
     11 C9          4.7600   -0.1102   -0.0721 C.ar      1 <0>         0.1390
     12 C10         5.8940   -0.9145   -0.0835 C.ar      1 <0>        -0.1091
     13 C11         7.1486   -0.3390   -0.0992 C.ar      1 <0>        -0.1276
     14 C12         7.2819    1.0396   -0.1034 C.ar      1 <0>         0.0944
     15 C13         6.1543    1.8440   -0.0912 C.ar      1 <0>        -0.1242
     16 C14         4.8996    1.2706   -0.0744 C.ar      1 <0>        -0.0684
     17 C15         3.6681    2.1546   -0.0574 C.3       1 <0>        -0.0425
     18 F1          8.5113    1.5996   -0.1188 F         1 <0>        -0.1328
     19 C16         1.1646   -2.8212    1.2108 C.2       1 <0>         0.5396
     20 O2          0.5172   -2.2206    2.0422 O.2       1 <0>        -0.4860
     21 N2          1.4627   -4.1220    1.3995 N.am      1 <0>        -0.6607
     22 C17         1.1063   -4.7555    2.5964 C.ar      1 <0>         0.1415
     23 C18        -0.0687   -4.4038    3.2462 C.ar      1 <0>        -0.1331
     24 C19        -0.4183   -5.0318    4.4283 C.ar      1 <0>         0.1126
     25 C20         0.4029   -6.0104    4.9632 C.ar      1 <0>        -0.1364
     26 C21         1.5741   -6.3623    4.3183 C.ar      1 <0>        -0.1038
     27 C22         1.9259   -5.7421    3.1333 C.ar      1 <0>         0.0679
     28 F2          3.0677   -6.0905    2.5008 F         1 <0>        -0.1278
     29 F3         -1.5615   -4.6898    5.0617 F         1 <0>        -0.1283
     30 H1         -0.9966    1.8872    0.0191 H         1 <0>         0.1373
     31 H2          1.1004    3.1852   -0.0172 H         1 <0>         0.1402
     32 H3         -0.9470   -0.5749    0.0099 H         1 <0>         0.1361
     33 H4          1.2689   -2.6216   -0.9247 H         1 <0>         0.1629
     34 H5          5.7934   -1.9898   -0.0797 H         1 <0>         0.1551
     35 H6          8.0284   -0.9652   -0.1080 H         1 <0>         0.1462
     36 H7          6.2573    2.9191   -0.0940 H         1 <0>         0.1490
     37 H8          3.6977    2.7947   -0.9391 H         1 <0>         0.0966
     38 H9          3.7228    2.7957    0.8225 H         1 <0>         0.0961
     39 H10         1.9240   -4.6193    0.7062 H         1 <0>         0.4238
     40 H11        -0.7091   -3.6405    2.8296 H         1 <0>         0.1628
     41 H12         0.1280   -6.4993    5.8861 H         1 <0>         0.1503
     42 H13         2.2128   -7.1253    4.7382 H         1 <0>         0.1536
@<TRIPOS>BOND
     1    1    6 ar
     2    1    2 ar
     3    1   30 1
     4    2    3 ar
     5    2   31 1
     6    3   17 1
     7    3    4 ar
     8    4   10 1
     9    4    5 ar
    10    5    6 ar
    11    5    7 1
    12    6   32 1
    13    7    8 1
    14    7   19 1
    15    7   33 1
    16    8    9 2
    17    8   10 am
    18   10   11 1
    19   11   16 ar
    20   11   12 ar
    21   12   13 ar
    22   12   34 1
    23   13   14 ar
    24   13   35 1
    25   14   15 ar
    26   14   18 1
    27   15   16 ar
    28   15   36 1
    29   16   17 1
    30   17   37 1
    31   17   38 1
    32   19   20 2
    33   19   21 am
    34   21   22 1
    35   21   39 1
    36   22   27 ar
    37   22   23 ar
    38   23   24 ar
    39   23   40 1
    40   24   25 ar
    41   24   29 1
    42   25   26 ar
    43   25   41 1
    44   26   27 ar
    45   26   42 1
    46   27   28 1
@<TRIPOS>MOLECULE
CHEMBL228561
   39    41     0     0     0
SMALL
USER_CHARGES

@<TRIPOS>ATOM
      1 C1         -0.0173    1.4248    0.0099 C.3       1 <0>         0.0229
      2 O1          0.0021   -0.0041    0.0020 O.3       1 <0>        -0.3033
      3 C2          0.6260   -0.6186    1.0418 C.ar      1 <0>         0.1283
      4 C3          1.2019    0.1427    2.0507 C.ar      1 <0>        -0.2020
      5 C4          1.8368   -0.4720    3.1082 C.ar      1 <0>        -0.0523
      6 C5          1.9028   -1.8672    3.1690 C.ar      1 <0>        -0.0832
      7 C6          1.3215   -2.6363    2.1515 C.ar      1 <0>         0.1342
      8 C7          0.6803   -2.0072    1.0943 C.ar      1 <0>         0.0444
      9 O2          0.1096   -2.7486    0.1060 O.3       1 <0>        -0.3189
     10 C8          0.9339   -3.0836   -1.0122 C.3       1 <0>         0.0376
     11 O3          1.3816   -3.9931    2.2029 O.3       1 <0>        -0.3242
     12 C9          0.3130   -4.6650    2.8727 C.3       1 <0>         0.0374
     13 C10         2.5810   -2.5263    4.2976 C.2       1 <0>        -0.0701
     14 C11         1.9817   -3.1542    5.3182 C.2       1 <0>        -0.1076
     15 C12         2.9762   -3.6923    6.2579 C.ar      1 <0>        -0.0732
     16 C13         2.8387   -4.4112    7.4509 C.ar      1 <0>        -0.0975
     17 C14         3.9602   -4.8017    8.1507 C.ar      1 <0>        -0.1212
     18 C15         5.2234   -4.4865    7.6808 C.ar      1 <0>        -0.1151
     19 C16         5.3694   -3.7756    6.5013 C.ar      1 <0>        -0.1012
     20 C17         4.2577   -3.3810    5.7942 C.ar      1 <0>        -0.0977
     21 C18         4.0749   -2.6189    4.5043 C.3       1 <0>        -0.0520
     22 H1          1.0053    1.8021    0.0021 H         1 <0>         0.0581
     23 H2         -0.5445    1.7859   -0.8732 H         1 <0>         0.1040
     24 H3         -0.5275    1.7763    0.9067 H         1 <0>         0.0588
     25 H4          1.1524    1.2206    2.0061 H         1 <0>         0.1402
     26 H5          2.2838    0.1243    3.8900 H         1 <0>         0.1373
     27 H6          1.7921   -3.6622   -0.6704 H         1 <0>         0.0487
     28 H7          0.3578   -3.6744   -1.7243 H         1 <0>         0.0943
     29 H8          1.2807   -2.1698   -1.4947 H         1 <0>         0.0456
     30 H9          0.4839   -5.7410    2.8411 H         1 <0>         0.0961
     31 H10         0.2696   -4.3343    3.9104 H         1 <0>         0.0490
     32 H11        -0.6297   -4.4321    2.3774 H         1 <0>         0.0523
     33 H12         0.9124   -3.2513    5.4352 H         1 <0>         0.1289
     34 H13         1.8555   -4.6593    7.8228 H         1 <0>         0.1220
     35 H14         3.8527   -5.3563    9.0711 H         1 <0>         0.1250
     36 H15         6.0971   -4.7955    8.2353 H         1 <0>         0.1259
     37 H16         6.3562   -3.5313    6.1367 H         1 <0>         0.1230
     38 H17         4.5373   -3.1573    3.6771 H         1 <0>         0.1042
     39 H18         4.5056   -1.6216    4.5937 H         1 <0>         0.1013
@<TRIPOS>BOND
     1    1    2 1
     2    1   22 1
     3    1   23 1
     4    1   24 1
     5    2    3 1
     6    3    8 ar
     7    3    4 ar
     8    4    5 ar
     9    4   25 1
    10    5    6 ar
    11    5   26 1
    12    6    7 ar
    13    6   13 1
    14    7    8 ar
    15    7   11 1
    16    8    9 1
    17    9   10 1
    18   10   27 1
    19   10   28 1
    20   10   29 1
    21   11   12 1
    22   12   30 1
    23   12   31 1
    24   12   32 1
    25   13   21 1
    26   13   14 2
    27   14   15 1
    28   14   33 1
    29   15   20 ar
    30   15   16 ar
    31   16   17 ar
    32   16   34 1
    33   17   18 ar
    34   17   35 1
    35   18   19 ar
    36   18   36 1
    37   19   20 ar
    38   19   37 1
    39   20   21 1
    40   21   38 1
    41   21   39 1
@<TRIPOS>MOLECULE
CHEMBL414824
   50    51     0     0     0
SMALL
USER_CHARGES

@<TRIPOS>ATOM
      1 C1         -0.0187    1.5258    0.0104 C.3       1 <0>        -0.1473
      2 C2          0.0021   -0.0041    0.0020 C.3       1 <0>        -0.0213
      3 C3          0.7421   -0.5109    1.2415 C.3       1 <0>        -0.1419
      4 C4         -1.4333   -0.5336    0.0129 C.3       1 <0>        -0.1423
      5 C5          0.7074   -0.4901   -1.2379 C.ar      1 <0>        -0.0903
      6 C6          1.2148    0.4183   -2.1413 C.ar      1 <0>        -0.0977
      7 C7          1.8693   -0.0338   -3.2908 C.ar      1 <0>        -0.0639
      8 C8          2.0058   -1.4063   -3.5179 C.ar      1 <0>        -0.1038
      9 C9          1.4951   -2.3069   -2.6087 C.ar      1 <0>        -0.0902
     10 C10         0.8501   -1.8529   -1.4653 C.ar      1 <0>         0.1204
     11 O1          0.3528   -2.7446   -0.5691 O.3       1 <0>        -0.4851
     12 C11         1.6410   -3.7869   -2.8526 C.3       1 <0>        -0.0212
     13 C12         2.3880   -4.0157   -4.1681 C.3       1 <0>        -0.1474
     14 C13         2.4285   -4.4181   -1.7026 C.3       1 <0>        -0.1422
     15 C14         0.2549   -4.4294   -2.9347 C.3       1 <0>        -0.1422
     16 C15         2.4132    0.9334   -4.2601 C.2       1 <0>        -0.0935
     17 C16         3.0415    0.4969   -5.3636 C.2       1 <0>        -0.1100
     18 C17         3.5856    1.4643   -6.3333 C.ar      1 <0>        -0.1051
     19 C18         4.2384    1.0220   -7.4920 C.ar      1 <0>        -0.0674
     20 C19         4.7302    1.9711   -8.3698 C.ar      1 <0>        -0.1687
     21 C20         4.5639    3.3137   -8.0792 C.ar      1 <0>         0.0957
     22 N1          3.9450    3.7020   -6.9808 N.ar      1 <0>        -0.4818
     23 C21         3.4543    2.8382   -6.1163 C.ar      1 <0>         0.1039
     24 H1          1.0039    1.9031    0.0027 H         1 <0>         0.0588
     25 H2         -0.5459    1.8868   -0.8726 H         1 <0>         0.0581
     26 H3         -0.5289    1.8773    0.9072 H         1 <0>         0.0599
     27 H4          0.2319   -0.1594    2.1383 H         1 <0>         0.0544
     28 H5          0.7568   -1.6008    1.2356 H         1 <0>         0.0749
     29 H6          1.7647   -0.1336    1.2338 H         1 <0>         0.0510
     30 H7         -1.9605   -0.1726   -0.8702 H         1 <0>         0.0542
     31 H8         -1.4185   -1.6235    0.0069 H         1 <0>         0.0580
     32 H9         -1.9435   -0.1821    0.9097 H         1 <0>         0.0609
     33 H10         1.1067    1.4777   -1.9618 H         1 <0>         0.1325
     34 H11         2.5103   -1.7602   -4.4048 H         1 <0>         0.1319
     35 H12        -0.5602   -3.0108   -0.7444 H         1 <0>         0.3816
     36 H13         3.3755   -3.5579   -4.1097 H         1 <0>         0.0581
     37 H14         2.4936   -5.0861   -4.3446 H         1 <0>         0.0603
     38 H15         1.8270   -3.5660   -4.9874 H         1 <0>         0.0574
     39 H16         1.8963   -4.2550   -0.7654 H         1 <0>         0.0755
     40 H17         2.5341   -5.4885   -1.8790 H         1 <0>         0.0544
     41 H18         3.4160   -3.9603   -1.6441 H         1 <0>         0.0509
     42 H19        -0.3060   -3.9797   -3.7540 H         1 <0>         0.0542
     43 H20         0.3605   -5.4998   -3.1111 H         1 <0>         0.0610
     44 H21        -0.2772   -4.2664   -1.9975 H         1 <0>         0.0581
     45 H22         2.3065    1.9934   -4.0831 H         1 <0>         0.1242
     46 H23         3.1482   -0.5632   -5.5406 H         1 <0>         0.1248
     47 H24         4.3548   -0.0325   -7.6940 H         1 <0>         0.1364
     48 H25         5.2393    1.6673   -9.2725 H         1 <0>         0.1378
     49 H26         4.9475    4.0563   -8.7631 H         1 <0>         0.1570
     50 H27         2.9499    3.1948   -5.2305 H         1 <0>         0.1567
@<TRIPOS>BOND
     1    1    2 1
     2    1   24 1
     3    1   25 1
     4    1   26 1
     5    2    3 1
     6    2    4 1
     7    2    5 1
     8    3   27 1
     9    3   28 1
    10    3   29 1
    11    4   30 1
    12    4   31 1
    13    4   32 1
    14    5   10 ar
    15    5    6 ar
    16    6    7 ar
    17    6   33 1
    18    7    8 ar
    19    7   16 1
    20    8    9 ar
    21    8   34 1
    22    9   10 ar
    23    9   12 1
    24   10   11 1
    25   11   35 1
    26   12   13 1
    27   12   14 1
    28   12   15 1
    29   13   36 1
    30   13   37 1
    31   13   38 1
    32   14   39 1
    33   14   40 1
    34   14   41 1
    35   15   42 1
    36   15   43 1
    37   15   44 1
    38   16   17 2
    39   16   45 1
    40   17   18 1
    41   17   46 1
    42   18   23 ar
    43   18   19 ar
    44   19   20 ar
    45   19   47 1
    46   20   21 ar
    47   20   48 1
    48   21   22 ar
    49   21   49 1
    50   22   23 ar
    51   23   50 1
@<TRIPOS>MOLECULE
CHEMBL40245
   39    41     0     0     0
SMALL
USER_CHARGES

@<TRIPOS>ATOM
      1 C1         -0.2461    1.4880   -0.1092 C.3       1 <0>        -0.0978
      2 C2         -0.0974   -0.0105   -0.0502 C.2       1 <0>         0.0881
      3 C3          0.0577   -0.8313   -1.1124 C.2       1 <0>        -0.1672
      4 C4          0.1588   -2.1457   -0.6260 C.2       1 <0>        -0.1220
      5 C5          0.0613   -2.0861    0.7319 C.2       1 <0>         0.0450
      6 N1         -0.0908   -0.7680    1.0862 N.pl3     1 <0>        -0.3889
      7 C6         -0.2205   -0.2819    2.3949 C.ar      1 <0>         0.0942
      8 C7          0.8549   -0.3475    3.2705 C.ar      1 <0>        -0.0721
      9 C8          0.7254    0.1324    4.5590 C.ar      1 <0>        -0.1388
     10 C9         -0.4761    0.6787    4.9779 C.ar      1 <0>         0.1186
     11 C10        -1.5499    0.7450    4.1060 C.ar      1 <0>        -0.1406
     12 C11        -1.4226    0.2710    2.8150 C.ar      1 <0>        -0.0804
     13 F1         -0.6010    1.1472    6.2389 F         1 <0>        -0.1281
     14 C12         0.1159   -3.2358    1.6595 C.ar      1 <0>         0.0427
     15 C13        -0.3968   -3.1183    2.9524 C.ar      1 <0>        -0.1438
     16 C14        -0.3427   -4.1950    3.8131 C.ar      1 <0>        -0.0150
     17 C15         0.2187   -5.3893    3.3974 C.ar      1 <0>        -0.6628
     18 C16         0.7291   -5.5124    2.1173 C.ar      1 <0>        -0.0148
     19 C17         0.6752   -4.4454    1.2444 C.ar      1 <0>        -0.1229
     20 S1          0.2843   -6.7595    4.5032 S.o2      1 <0>         2.4993
     21 O1          1.3880   -7.5344    4.0553 O.2       1 <0>        -0.9358
     22 O2          0.2857   -6.1789    5.8002 O.2       1 <0>        -0.9368
     23 C18        -1.2656   -7.6594    4.2231 C.3       1 <0>        -0.6503
     24 Br1         0.1254   -0.3056   -2.9275 Br        1 <0>        -0.0199
     25 H1          0.7385    1.9530   -0.0603 H         1 <0>         0.0838
     26 H2         -0.7342    1.7682   -1.0427 H         1 <0>         0.0920
     27 H3         -0.8501    1.8266    0.7326 H         1 <0>         0.0726
     28 H4          0.2894   -3.0387   -1.2192 H         1 <0>         0.1552
     29 H5          1.7921   -0.7738    2.9443 H         1 <0>         0.1416
     30 H6          1.5617    0.0812    5.2405 H         1 <0>         0.1501
     31 H7         -2.4863    1.1711    4.4346 H         1 <0>         0.1499
     32 H8         -2.2589    0.3270    2.1339 H         1 <0>         0.1434
     33 H9         -0.8346   -2.1863    3.2783 H         1 <0>         0.1318
     34 H10        -0.7391   -4.1054    4.8137 H         1 <0>         0.1438
     35 H11         1.1667   -6.4471    1.7992 H         1 <0>         0.1480
     36 H12         1.0693   -4.5443    0.2438 H         1 <0>         0.1400
     37 H13        -1.3153   -7.9825    3.1833 H         1 <0>         0.1323
     38 H14        -1.3029   -8.5310    4.8766 H         1 <0>         0.1340
     39 H15        -2.1099   -7.0054    4.4411 H         1 <0>         0.1314
@<TRIPOS>BOND
     1    1    2 1
     2    1   25 1
     3    1   26 1
     4    1   27 1
     5    2    6 1
     6    2    3 2
     7    3    4 1
     8    3   24 1
     9    4    5 2
    10    4   28 1
    11    5    6 1
    12    5   14 1
    13    6    7 1
    14    7   12 ar
    15    7    8 ar
    16    8    9 ar
    17    8   29 1
    18    9   10 ar
    19    9   30 1
    20   10   11 ar
    21   10   13 1
    22   11   12 ar
    23   11   31 1
    24   12   32 1
    25   14   19 ar
    26   14   15 ar
    27   15   16 ar
    28   15   33 1
    29   16   17 ar
    30   16   34 1
    31   17   18 ar
    32   17   20 1
    33   18   19 ar
    34   18   35 1
    35   19   36 1
    36   20   21 2
    37   20   22 2
    38   20   23 1
    39   23   37 1
    40   23   38 1
    41   23   39 1
@<TRIPOS>MOLECULE
CHEMBL1224097
   42    45     0     0     0
SMALL
USER_CHARGES

@<TRIPOS>ATOM
      1 C1          0.9130    0.6862   -0.2593 C.3       1 <0>         0.0943
      2 N1         -0.4323    0.3568    0.2181 N.am      1 <0>        -0.5481
      3 C2         -1.0940   -0.8582    0.0445 C.ar      1 <0>         0.0877
      4 C3         -0.7447   -2.0494   -0.5759 C.ar      1 <0>        -0.0960
      5 C4         -1.6298   -3.1056   -0.5880 C.ar      1 <0>        -0.0609
      6 C5         -2.8791   -2.9784    0.0239 C.ar      1 <0>        -0.0326
      7 C6         -3.2315   -1.7823    0.6477 C.ar      1 <0>        -0.0631
      8 C7         -2.3407   -0.7238    0.6581 C.ar      1 <0>         0.0410
      9 O1         -2.4029    0.5293    1.1725 O.3       1 <0>        -0.2312
     10 C8         -1.2535    1.1708    0.9102 C.2       1 <0>         0.6357
     11 O2         -0.9943    2.3112    1.2432 O.2       1 <0>        -0.4781
     12 C9         -3.8283   -4.1126    0.0098 C.2       1 <0>         0.1386
     13 C10        -3.5067   -5.4372   -0.0934 C.2       1 <0>        -0.1999
     14 C11        -4.6941   -6.1690   -0.0669 C.2       1 <0>        -0.0142
     15 N2         -5.6973   -5.3350    0.0471 N.2       1 <0>        -0.2168
     16 N3         -5.1881   -4.0313    0.1033 N.pl3     1 <0>        -0.2928
     17 C12        -5.9396   -2.8546    0.2297 C.ar      1 <0>         0.0830
     18 C13        -5.6622   -1.7627   -0.5822 C.ar      1 <0>        -0.0682
     19 C14        -6.4025   -0.6042   -0.4572 C.ar      1 <0>        -0.1349
     20 C15        -7.4233   -0.5305    0.4797 C.ar      1 <0>         0.1481
     21 C16        -7.7006   -1.6210    1.2915 C.ar      1 <0>        -0.1954
     22 C17        -6.9653   -2.7824    1.1629 C.ar      1 <0>        -0.0525
     23 O3         -8.1516    0.6107    0.6026 O.3       1 <0>        -0.3092
     24 C18        -9.1870    0.6166    1.5875 C.3       1 <0>         0.0225
     25 C19        -4.8040   -7.6694   -0.1552 C.3       1 <0>         0.5578
     26 F1         -4.7573   -8.2169    1.1314 F         1 <0>        -0.1655
     27 F2         -6.0154   -8.0132   -0.7646 F         1 <0>        -0.1649
     28 F3         -3.7412   -8.1710   -0.9142 F         1 <0>        -0.1626
     29 H1          1.1616    1.7071    0.0308 H         1 <0>         0.1003
     30 H2          1.6337   -0.0025    0.1814 H         1 <0>         0.0823
     31 H3          0.9445    0.5992   -1.3454 H         1 <0>         0.0824
     32 H4          0.2208   -2.1485   -1.0496 H         1 <0>         0.1468
     33 H5         -1.3576   -4.0323   -1.0714 H         1 <0>         0.1519
     34 H6         -4.1971   -1.6823    1.1209 H         1 <0>         0.1466
     35 H7         -2.5104   -5.8448   -0.1801 H         1 <0>         0.1724
     36 H8         -4.8672   -1.8197   -1.3110 H         1 <0>         0.1403
     37 H9         -6.1869    0.2451   -1.0886 H         1 <0>         0.1462
     38 H10        -8.4948   -1.5628    2.0211 H         1 <0>         0.1431
     39 H11        -7.1846   -3.6329    1.7913 H         1 <0>         0.1395
     40 H12        -8.7535    0.4385    2.5716 H         1 <0>         0.0602
     41 H13        -9.6889    1.5842    1.5813 H         1 <0>         0.1059
     42 H14        -9.9085   -0.1683    1.3608 H         1 <0>         0.0601
@<TRIPOS>BOND
     1    1    2 1
     2    1   29 1
     3    1   30 1
     4    1   31 1
     5    2   10 am
     6    2    3 1
     7    3    8 ar
     8    3    4 ar
     9    4    5 ar
    10    4   32 1
    11    5    6 ar
    12    5   33 1
    13    6    7 ar
    14    6   12 1
    15    7    8 ar
    16    7   34 1
    17    8    9 1
    18    9   10 1
    19   10   11 2
    20   12   16 1
    21   12   13 2
    22   13   14 1
    23   13   35 1
    24   14   15 2
    25   14   25 1
    26   15   16 1
    27   16   17 1
    28   17   22 ar
    29   17   18 ar
    30   18   19 ar
    31   18   36 1
    32   19   20 ar
    33   19   37 1
    34   20   21 ar
    35   20   23 1
    36   21   22 ar
    37   21   38 1
    38   22   39 1
    39   23   24 1
    40   24   40 1
    41   24   41 1
    42   24   42 1
    43   25   26 1
    44   25   27 1
    45   25   28 1
@<TRIPOS>MOLECULE
CHEMBL260553
   53    55     0     0     0
SMALL
USER_CHARGES

@<TRIPOS>ATOM
      1 C1          1.8494    1.5479    0.1386 C.3       1 <0>        -0.1235
      2 C2          2.1353    0.0688    0.1775 C.2       1 <0>        -0.1284
      3 C3          2.1550   -0.5646    1.3241 C.2       1 <0>        -0.1620
      4 C4          1.7739    0.1577    2.5906 C.3       1 <0>        -0.0432
      5 C5          0.5958   -0.5330    3.2278 C.ar      1 <0>        -0.1601
      6 C6         -0.6987   -0.1531    2.8909 C.ar      1 <0>         0.1965
      7 C7         -1.7934   -0.7752    3.4704 C.ar      1 <0>        -0.1813
      8 C8         -1.6098   -1.7922    4.3971 C.ar      1 <0>         0.1865
      9 C9         -0.3010   -2.1828    4.7300 C.ar      1 <0>        -0.2632
     10 C10         0.8018   -1.5487    4.1433 C.ar      1 <0>         0.2210
     11 O1          2.0626   -1.9248    4.4747 O.3       1 <0>        -0.4718
     12 C11        -0.1195   -3.2793    5.6981 C.2       1 <0>         0.4416
     13 O2          0.9620   -3.5236    6.2024 O.2       1 <0>        -0.4216
     14 C12        -1.3295   -4.0638    6.0200 C.ar      1 <0>        -0.2196
     15 C13        -2.5782   -3.5636    5.6159 C.ar      1 <0>         0.1695
     16 O3         -2.6788   -2.3866    4.9643 O.3       1 <0>        -0.2211
     17 C14        -3.7231   -4.2970    5.9014 C.ar      1 <0>        -0.1659
     18 C15        -3.6275   -5.4986    6.5806 C.ar      1 <0>         0.1549
     19 C16        -2.3844   -5.9886    6.9874 C.ar      1 <0>         0.0532
     20 C17        -1.2374   -5.2742    6.7080 C.ar      1 <0>         0.0073
     21 C18         0.1069   -5.7984    7.1429 C.3       1 <0>        -0.0612
     22 C19         0.4254   -5.2814    8.5222 C.2       1 <0>        -0.1450
     23 C20         0.6495   -6.1224    9.5013 C.2       1 <0>        -0.1258
     24 C21         0.5418   -7.6060    9.2598 C.3       1 <0>        -0.1235
     25 C22         1.0150   -5.6062   10.8691 C.3       1 <0>        -0.1171
     26 O4         -2.3045   -7.1693    7.6586 O.3       1 <0>        -0.4702
     27 O5         -4.7527   -6.2079    6.8546 O.3       1 <0>        -0.4784
     28 O6         -0.8925    0.8385    1.9847 O.3       1 <0>        -0.4833
     29 C23         2.3986   -0.6817   -1.1025 C.3       1 <0>        -0.1197
     30 H1          2.5480    2.0703    0.7923 H         1 <0>         0.0664
     31 H2          1.9641    1.9134   -0.8818 H         1 <0>         0.0609
     32 H3          0.8295    1.7298    0.4773 H         1 <0>         0.0724
     33 H4          2.4443   -1.6045    1.3616 H         1 <0>         0.1100
     34 H5          2.6171    0.1495    3.2813 H         1 <0>         0.0829
     35 H6          1.5072    1.1880    2.3551 H         1 <0>         0.0910
     36 H7         -2.7927   -0.4673    3.2003 H         1 <0>         0.1531
     37 H8          2.4324   -1.4419    5.2265 H         1 <0>         0.4029
     38 H9         -4.6900   -3.9285    5.5922 H         1 <0>         0.1546
     39 H10         0.0839   -6.8880    7.1597 H         1 <0>         0.0853
     40 H11         0.8719   -5.4618    6.4432 H         1 <0>         0.1055
     41 H12         0.4689   -4.2176    8.7034 H         1 <0>         0.1067
     42 H13         1.4812   -7.9765    8.8496 H         1 <0>         0.0631
     43 H14         0.3315   -8.1130   10.2015 H         1 <0>         0.0599
     44 H15        -0.2652   -7.8015    8.5537 H         1 <0>         0.0752
     45 H16         0.1079   -5.4508   11.4532 H         1 <0>         0.0656
     46 H17         1.6519   -6.3328   11.3735 H         1 <0>         0.0627
     47 H18         1.5496   -4.6614   10.7701 H         1 <0>         0.0610
     48 H19        -2.2000   -7.9412    7.0856 H         1 <0>         0.3846
     49 H20        -4.9960   -6.8412    6.1655 H         1 <0>         0.3980
     50 H21        -0.9542    0.5294    1.0705 H         1 <0>         0.4008
     51 H22         2.3406    0.0066   -1.9457 H         1 <0>         0.0626
     52 H23         3.3928   -1.1270   -1.0647 H         1 <0>         0.0654
     53 H24         1.6529   -1.4675   -1.2230 H         1 <0>         0.0648
@<TRIPOS>BOND
     1    1    2 1
     2    1   30 1
     3    1   31 1
     4    1   32 1
     5    2    3 2
     6    2   29 1
     7    3    4 1
     8    3   33 1
     9    4    5 1
    10    4   34 1
    11    4   35 1
    12    5   10 ar
    13    5    6 ar
    14    6    7 ar
    15    6   28 1
    16    7    8 ar
    17    7   36 1
    18    8   16 1
    19    8    9 ar
    20    9   10 ar
    21    9   12 1
    22   10   11 1
    23   11   37 1
    24   12   13 2
    25   12   14 1
    26   14   20 ar
    27   14   15 ar
    28   15   16 1
    29   15   17 ar
    30   17   18 ar
    31   17   38 1
    32   18   19 ar
    33   18   27 1
    34   19   20 ar
    35   19   26 1
    36   20   21 1
    37   21   22 1
    38   21   39 1
    39   21   40 1
    40   22   23 2
    41   22   41 1
    42   23   24 1
    43   23   25 1
    44   24   42 1
    45   24   43 1
    46   24   44 1
    47   25   45 1
    48   25   46 1
    49   25   47 1
    50   26   48 1
    51   27   49 1
    52   28   50 1
    53   29   51 1
    54   29   52 1
    55   29   53 1
@<TRIPOS>MOLECULE
CHEMBL305971
   48    51     0     0     0
SMALL
USER_CHARGES

@<TRIPOS>ATOM
      1 C1          1.1777   -0.6007   -0.4783 C.3       1 <0>        -0.1425
      2 C2          0.1686    0.0996    0.4339 C.3       1 <0>        -0.1126
      3 C3         -1.2407   -0.4053    0.1179 C.3       1 <0>         0.2095
      4 C4         -1.2900   -1.9075    0.2697 C.2       1 <0>         0.0759
      5 C5         -1.8905   -2.7140   -0.6363 C.2       1 <0>        -0.1766
      6 C6         -1.7397   -4.0718   -0.1656 C.ar      1 <0>        -0.0857
      7 C7         -2.1484   -5.3077   -0.6768 C.ar      1 <0>        -0.0727
      8 C8         -1.8217   -6.4221    0.0554 C.ar      1 <0>        -0.1536
      9 C9         -1.1207   -6.3405    1.2475 C.ar      1 <0>        -0.1107
     10 C10        -0.7038   -5.1317    1.7771 C.ar      1 <0>        -0.1287
     11 C11        -1.0211   -3.9829    1.0555 C.ar      1 <0>         0.0923
     12 N1         -0.7685   -2.6601    1.2850 N.pl3     1 <0>        -0.5729
     13 H1         -0.2906   -2.3080    2.0522 H         1 <0>         0.4144
     14 C12        -2.5686   -2.1960   -1.8798 C.3       1 <0>        -0.0330
     15 H2         -1.9356   -2.3782   -2.7482 H         1 <0>         0.0812
     16 C13        -2.7868   -0.6864   -1.7034 C.3       1 <0>         0.0625
     17 O1         -1.5780   -0.0814   -1.2367 O.3       1 <0>        -0.3239
     18 C14        -3.9159   -2.8970   -2.0650 C.3       1 <0>        -0.0723
     19 C15        -4.5311   -2.4657   -3.3713 C.ar      1 <0>        -0.0748
     20 C16        -5.3570   -1.3580   -3.4140 C.ar      1 <0>        -0.1150
     21 C17        -5.9214   -0.9624   -4.6122 C.ar      1 <0>        -0.1164
     22 C18        -5.6595   -1.6741   -5.7680 C.ar      1 <0>        -0.1288
     23 C19        -4.8328   -2.7812   -5.7255 C.ar      1 <0>        -0.1209
     24 C20        -4.2650   -3.1744   -4.5280 C.ar      1 <0>        -0.1179
     25 C21        -2.2472    0.2439    1.0699 C.3       1 <0>        -0.2061
     26 C22        -2.2620    1.7341    0.8454 C.2       1 <0>         0.4972
     27 O2         -1.6238    2.2184   -0.0736 O.co2     1 <0>        -0.6687
     28 O3         -2.9122    2.4552    1.5828 O.co2     1 <0>        -0.7081
     29 H3          2.1686   -0.1762   -0.3173 H         1 <0>         0.0473
     30 H4          1.1971   -1.6660   -0.2484 H         1 <0>         0.0403
     31 H5          0.8863   -0.4588   -1.5190 H         1 <0>         0.0639
     32 H6          0.4076   -0.1181    1.4749 H         1 <0>         0.0544
     33 H7          0.2146    1.1759    0.2680 H         1 <0>         0.1100
     34 H8         -2.6960   -5.3820   -1.6047 H         1 <0>         0.1258
     35 H9         -2.1212   -7.3935   -0.3094 H         1 <0>         0.1127
     36 H10        -0.8915   -7.2509    1.7813 H         1 <0>         0.1154
     37 H11        -0.1581   -5.0812    2.7077 H         1 <0>         0.1235
     38 H12        -3.0680   -0.2457   -2.6598 H         1 <0>         0.0926
     39 H13        -3.5817   -0.5166   -0.9772 H         1 <0>         0.0511
     40 H14        -3.7657   -3.9766   -2.0730 H         1 <0>         0.0769
     41 H15        -4.5809   -2.6287   -1.2441 H         1 <0>         0.0734
     42 H16        -5.5617   -0.8019   -2.5110 H         1 <0>         0.1233
     43 H17        -6.5672   -0.0974   -4.6454 H         1 <0>         0.1207
     44 H18        -6.1009   -1.3654   -6.7040 H         1 <0>         0.1175
     45 H19        -4.6284   -3.3375   -6.6284 H         1 <0>         0.1179
     46 H20        -3.6162   -4.0371   -4.4955 H         1 <0>         0.1193
     47 H21        -3.2409   -0.1620    0.8802 H         1 <0>         0.0617
     48 H22        -1.9599    0.0346    2.1004 H         1 <0>         0.0611
@<TRIPOS>BOND
     1    1    2 1
     2    1   29 1
     3    1   30 1
     4    1   31 1
     5    2    3 1
     6    2   32 1
     7    2   33 1
     8    3   17 1
     9    3    4 1
    10    3   25 1
    11    4   12 1
    12    4    5 2
    13    5    6 1
    14    5   14 1
    15    6   11 ar
    16    6    7 ar
    17    7    8 ar
    18    7   34 1
    19    8    9 ar
    20    8   35 1
    21    9   10 ar
    22    9   36 1
    23   10   11 ar
    24   10   37 1
    25   11   12 1
    26   12   13 1
    27   14   15 1
    28   14   16 1
    29   14   18 1
    30   16   17 1
    31   16   38 1
    32   16   39 1
    33   18   19 1
    34   18   40 1
    35   18   41 1
    36   19   24 ar
    37   19   20 ar
    38   20   21 ar
    39   20   42 1
    40   21   22 ar
    41   21   43 1
    42   22   23 ar
    43   22   44 1
    44   23   24 ar
    45   23   45 1
    46   24   46 1
    47   25   26 1
    48   25   47 1
    49   25   48 1
    50   26   27 2
    51   26   28 1
@<TRIPOS>MOLECULE
CHEMBL305971__1
   48    51     0     0     0
SMALL
USER_CHARGES

@<TRIPOS>ATOM
      1 C1          0.0587    1.4420   -0.1579 C.3       1 <0>        -0.1464
      2 C2          0.0243   -0.0827   -0.0365 C.3       1 <0>        -0.1443
      3 C3         -1.4234   -0.5484    0.1319 C.3       1 <0>         0.2053
      4 C4         -1.4595   -2.0487    0.3049 C.2       1 <0>         0.1112
      5 C5         -1.6687   -2.6410    1.5037 C.2       1 <0>        -0.1607
      6 C6         -1.6382   -4.0691    1.2856 C.ar      1 <0>        -0.0800
      7 C7         -1.7913   -5.1662    2.1392 C.ar      1 <0>        -0.0752
      8 C8         -1.7011   -6.4129    1.5716 C.ar      1 <0>        -0.1564
      9 C9         -1.4688   -6.5905    0.2175 C.ar      1 <0>        -0.1160
     10 C10        -1.3123   -5.5239   -0.6504 C.ar      1 <0>        -0.1293
     11 C11        -1.3999   -4.2459   -0.1028 C.ar      1 <0>         0.0946
     12 N1         -1.2969   -3.0030   -0.6606 N.pl3     1 <0>        -0.5735
     13 H1         -1.1338   -2.8246   -1.6000 H         1 <0>         0.4100
     14 C12        -1.8833   -1.8666    2.7798 C.3       1 <0>        -0.0254
     15 H2         -2.9394   -1.8841    3.0487 H         1 <0>         0.0869
     16 C13        -1.4335   -0.4192    2.5340 C.3       1 <0>         0.0653
     17 O1         -1.9909    0.0506    1.3037 O.3       1 <0>        -0.3320
     18 C14        -1.0521   -2.4841    3.9062 C.3       1 <0>        -0.0744
     19 C15        -1.3645   -1.7833    5.2033 C.ar      1 <0>        -0.0711
     20 C16        -0.6357   -0.6710    5.5808 C.ar      1 <0>        -0.1193
     21 C17        -0.9222   -0.0281    6.7706 C.ar      1 <0>        -0.1196
     22 C18        -1.9379   -0.4973    7.5825 C.ar      1 <0>        -0.1308
     23 C19        -2.6672   -1.6090    7.2045 C.ar      1 <0>        -0.1183
     24 C20        -2.3835   -2.2493    6.0127 C.ar      1 <0>        -0.1153
     25 C21        -2.2403   -0.1499   -1.0988 C.3       1 <0>        -0.1806
     26 C22        -3.6756   -0.5665   -0.9056 C.2       1 <0>         0.4926
     27 O2         -3.9984   -1.2000    0.0849 O.co2     1 <0>        -0.6620
     28 O3         -4.5140   -0.2701   -1.7397 O.co2     1 <0>        -0.7142
     29 H3          1.0942    1.7815   -0.1793 H         1 <0>         0.0488
     30 H4         -0.4420    1.7447   -1.0775 H         1 <0>         0.0587
     31 H5         -0.4517    1.8862    0.6968 H         1 <0>         0.0638
     32 H6          0.4469   -0.5286   -0.9368 H         1 <0>         0.0648
     33 H7          0.6084   -0.3915    0.8305 H         1 <0>         0.0637
     34 H8         -1.9719   -5.0386    3.1963 H         1 <0>         0.1231
     35 H9         -1.8146   -7.2833    2.2009 H         1 <0>         0.1099
     36 H10        -1.4073   -7.5951   -0.1740 H         1 <0>         0.1126
     37 H11        -1.1306   -5.6754   -1.7042 H         1 <0>         0.1208
     38 H12        -1.7773    0.2122    3.3532 H         1 <0>         0.0898
     39 H13        -0.3456   -0.3813    2.4777 H         1 <0>         0.0441
     40 H14        -1.2941   -3.5429    3.9979 H         1 <0>         0.0778
     41 H15         0.0080   -2.3720    3.6789 H         1 <0>         0.0701
     42 H16         0.1578   -0.3044    4.9465 H         1 <0>         0.1199
     43 H17        -0.3524    0.8405    7.0659 H         1 <0>         0.1182
     44 H18        -2.1613    0.0045    8.5124 H         1 <0>         0.1167
     45 H19        -3.4605   -1.9758    7.8391 H         1 <0>         0.1186
     46 H20        -2.9558   -3.1157    5.7156 H         1 <0>         0.1215
     47 H21        -2.1906    0.9306   -1.2336 H         1 <0>         0.0743
     48 H22        -1.8338   -0.6451   -1.9807 H         1 <0>         0.0617
@<TRIPOS>BOND
     1    1    2 1
     2    1   29 1
     3    1   30 1
     4    1   31 1
     5    2    3 1
     6    2   32 1
     7    2   33 1
     8    3   17 1
     9    3    4 1
    10    3   25 1
    11    4   12 1
    12    4    5 2
    13    5    6 1
    14    5   14 1
    15    6   11 ar
    16    6    7 ar
    17    7    8 ar
    18    7   34 1
    19    8    9 ar
    20    8   35 1
    21    9   10 ar
    22    9   36 1
    23   10   11 ar
    24   10   37 1
    25   11   12 1
    26   12   13 1
    27   14   15 1
    28   14   16 1
    29   14   18 1
    30   16   17 1
    31   16   38 1
    32   16   39 1
    33   18   19 1
    34   18   40 1
    35   18   41 1
    36   19   24 ar
    37   19   20 ar
    38   20   21 ar
    39   20   42 1
    40   21   22 ar
    41   21   43 1
    42   22   23 ar
    43   22   44 1
    44   23   24 ar
    45   23   45 1
    46   24   46 1
    47   25   26 1
    48   25   47 1
    49   25   48 1
    50   26   27 2
    51   26   28 1
@<TRIPOS>MOLECULE
CHEMBL176477
   34    36     0     0     0
SMALL
USER_CHARGES

@<TRIPOS>ATOM
      1 C1         -0.0184    1.5028    0.0103 C.3       1 <0>        -0.1023
      2 C2          0.0021   -0.0041    0.0020 C.ar      1 <0>         0.1606
      3 C3          0.0055   -0.6790   -1.2029 C.ar      1 <0>        -0.2033
      4 C4          0.0245   -2.0663   -1.1995 C.ar      1 <0>        -0.0397
      5 C5          0.0398   -2.7255    0.0184 C.ar      1 <0>        -0.1945
      6 C6          0.0351   -1.9866    1.1915 C.ar      1 <0>         0.3378
      7 N1          0.0218   -0.6604    1.1444 N.ar      1 <0>        -0.4970
      8 O1          0.0489   -2.6020    2.3968 O.3       1 <0>        -0.2358
      9 C7          0.4813   -3.8813    2.5021 C.ar      1 <0>         0.0874
     10 C8          0.9031   -4.3556    3.7392 C.ar      1 <0>        -0.1202
     11 C9          1.3471   -5.6558    3.8683 C.ar      1 <0>        -0.0709
     12 C10         1.3734   -6.4901    2.7657 C.ar      1 <0>        -0.0280
     13 C11         0.9553   -6.0221    1.5349 C.ar      1 <0>        -0.0922
     14 C12         0.5099   -4.7190    1.3996 C.ar      1 <0>        -0.1456
     15 C13         0.0619   -4.2282    0.0495 C.3       1 <0>        -0.0229
     16 C14         1.8577   -7.9102    2.9068 C.3       1 <0>        -0.1337
     17 C15         0.9744   -8.6528    3.9114 C.3       1 <0>        -0.1154
     18 C16         3.2830   -7.9085    3.3963 C.2       1 <0>         0.5001
     19 O2          3.6941   -8.8309    4.0794 O.co2     1 <0>        -0.6940
     20 O3          4.0251   -6.9847    3.1092 O.co2     1 <0>        -0.6891
     21 H1          1.0042    1.8801    0.0026 H         1 <0>         0.0806
     22 H2         -0.5455    1.8639   -0.8728 H         1 <0>         0.0774
     23 H3         -0.5286    1.8543    0.9071 H         1 <0>         0.0786
     24 H4         -0.0067   -0.1342   -2.1353 H         1 <0>         0.1385
     25 H5          0.0268   -2.6203   -2.1266 H         1 <0>         0.1404
     26 H6          0.8836   -3.7048    4.6010 H         1 <0>         0.1308
     27 H7          1.6743   -6.0218    4.8303 H         1 <0>         0.1302
     28 H8          0.9769   -6.6754    0.6751 H         1 <0>         0.1240
     29 H9         -0.9386   -4.6078   -0.1580 H         1 <0>         0.0887
     30 H10         0.7488   -4.5946   -0.7134 H         1 <0>         0.0903
     31 H11         1.8064   -8.4094    1.9392 H         1 <0>         0.0725
     32 H12        -0.0565   -8.6540    3.5574 H         1 <0>         0.0362
     33 H13         1.3247   -9.6799    4.0135 H         1 <0>         0.0622
     34 H14         1.0257   -8.1536    4.8790 H         1 <0>         0.0481
@<TRIPOS>BOND
     1    1    2 1
     2    1   21 1
     3    1   22 1
     4    1   23 1
     5    2    7 ar
     6    2    3 ar
     7    3    4 ar
     8    3   24 1
     9    4    5 ar
    10    4   25 1
    11    5   15 1
    12    5    6 ar
    13    6    7 ar
    14    6    8 1
    15    8    9 1
    16    9   14 ar
    17    9   10 ar
    18   10   11 ar
    19   10   26 1
    20   11   12 ar
    21   11   27 1
    22   12   13 ar
    23   12   16 1
    24   13   14 ar
    25   13   28 1
    26   14   15 1
    27   15   29 1
    28   15   30 1
    29   16   17 1
    30   16   18 1
    31   16   31 1
    32   17   32 1
    33   17   33 1
    34   17   34 1
    35   18   19 2
    36   18   20 1
@<TRIPOS>MOLECULE
CHEMBL176477__1
   34    36     0     0     0
SMALL
USER_CHARGES

@<TRIPOS>ATOM
      1 C1         -0.0184    1.5028    0.0103 C.3       1 <0>        -0.1023
      2 C2          0.0021   -0.0041    0.0020 C.ar      1 <0>         0.1604
      3 C3          0.0055   -0.6790   -1.2029 C.ar      1 <0>        -0.2037
      4 C4          0.0245   -2.0663   -1.1995 C.ar      1 <0>        -0.0402
      5 C5          0.0398   -2.7255    0.0184 C.ar      1 <0>        -0.1945
      6 C6          0.0351   -1.9866    1.1915 C.ar      1 <0>         0.3375
      7 N1          0.0218   -0.6604    1.1444 N.ar      1 <0>        -0.4972
      8 O1          0.0489   -2.6020    2.3968 O.3       1 <0>        -0.2351
      9 C7          0.4813   -3.8813    2.5021 C.ar      1 <0>         0.0907
     10 C8          0.9031   -4.3556    3.7392 C.ar      1 <0>        -0.1292
     11 C9          1.3471   -5.6558    3.8683 C.ar      1 <0>        -0.0505
     12 C10         1.3734   -6.4901    2.7657 C.ar      1 <0>        -0.0506
     13 C11         0.9553   -6.0221    1.5349 C.ar      1 <0>        -0.0943
     14 C12         0.5099   -4.7190    1.3996 C.ar      1 <0>        -0.1535
     15 C13         0.0619   -4.2282    0.0495 C.3       1 <0>        -0.0225
     16 C14         1.8577   -7.9102    2.9068 C.3       1 <0>        -0.1300
     17 C15         3.3048   -7.9085    3.4037 C.3       1 <0>        -0.1199
     18 C16         0.9877   -8.6417    3.8963 C.2       1 <0>         0.5025
     19 O2          0.6639   -9.7980    3.6852 O.co2     1 <0>        -0.6966
     20 O3          0.6076   -8.0771    4.9079 O.co2     1 <0>        -0.6862
     21 H1          1.0042    1.8801    0.0026 H         1 <0>         0.0801
     22 H2         -0.5455    1.8639   -0.8728 H         1 <0>         0.0775
     23 H3         -0.5286    1.8543    0.9071 H         1 <0>         0.0789
     24 H4         -0.0067   -0.1342   -2.1353 H         1 <0>         0.1383
     25 H5          0.0268   -2.6203   -2.1266 H         1 <0>         0.1402
     26 H6          0.8836   -3.7048    4.6010 H         1 <0>         0.1307
     27 H7          1.6743   -6.0218    4.8303 H         1 <0>         0.1462
     28 H8          0.9769   -6.6754    0.6751 H         1 <0>         0.1241
     29 H9         -0.9386   -4.6078   -0.1580 H         1 <0>         0.0892
     30 H10         0.7488   -4.5946   -0.7134 H         1 <0>         0.0889
     31 H11         1.8064   -8.4094    1.9392 H         1 <0>         0.0702
     32 H12         3.6551   -8.9356    3.5058 H         1 <0>         0.0533
     33 H13         3.9341   -7.3794    2.6881 H         1 <0>         0.0426
     34 H14         3.3561   -7.4092    4.3713 H         1 <0>         0.0551
@<TRIPOS>BOND
     1    1    2 1
     2    1   21 1
     3    1   22 1
     4    1   23 1
     5    2    7 ar
     6    2    3 ar
     7    3    4 ar
     8    3   24 1
     9    4    5 ar
    10    4   25 1
    11    5   15 1
    12    5    6 ar
    13    6    7 ar
    14    6    8 1
    15    8    9 1
    16    9   14 ar
    17    9   10 ar
    18   10   11 ar
    19   10   26 1
    20   11   12 ar
    21   11   27 1
    22   12   13 ar
    23   12   16 1
    24   13   14 ar
    25   13   28 1
    26   14   15 1
    27   15   29 1
    28   15   30 1
    29   16   17 1
    30   16   18 1
    31   16   31 1
    32   17   32 1
    33   17   33 1
    34   17   34 1
    35   18   19 2
    36   18   20 1
@<TRIPOS>MOLECULE
CHEMBL70478
   38    40     0     0     0
SMALL
USER_CHARGES

@<TRIPOS>ATOM
      1 C1         -3.1783   -0.2383    2.1790 C.3       1 <0>         0.0231
      2 O1         -3.0573   -0.9524    3.4108 O.3       1 <0>        -0.3106
      3 C2         -1.8130   -1.3747    3.7599 C.ar      1 <0>         0.1498
      4 C3         -0.7314   -1.1014    2.9353 C.ar      1 <0>        -0.1986
      5 C4          0.5327   -1.5300    3.2893 C.ar      1 <0>        -0.0608
      6 C5          0.7210   -2.2345    4.4707 C.ar      1 <0>         0.0879
      7 C6         -0.3619   -2.5077    5.2955 C.ar      1 <0>        -0.0551
      8 C7         -1.6245   -2.0737    4.9433 C.ar      1 <0>        -0.1398
      9 N1          2.0045   -2.6705    4.8305 N.am      1 <0>        -0.4917
     10 C8          2.6013   -3.8796    4.4664 C.2       1 <0>         0.0335
     11 C9          3.8243   -3.9006    5.0165 C.2       1 <0>        -0.0099
     12 O2          4.0004   -2.7499    5.7045 O.3       1 <0>        -0.2287
     13 C10         2.8949   -1.9980    5.5877 C.2       1 <0>         0.6173
     14 O3          2.7243   -0.8996    6.0823 O.2       1 <0>        -0.4806
     15 C11         1.9969   -4.9399    3.6296 C.ar      1 <0>         0.0329
     16 C12         1.3781   -4.6123    2.4230 C.ar      1 <0>        -0.1164
     17 C13         0.8163   -5.6055    1.6473 C.ar      1 <0>        -0.0165
     18 C14         0.8655   -6.9238    2.0641 C.ar      1 <0>        -0.6693
     19 C15         1.4778   -7.2551    3.2596 C.ar      1 <0>        -0.0113
     20 C16         2.0486   -6.2718    4.0413 C.ar      1 <0>        -0.1155
     21 S1          0.1448   -8.1862    1.0682 S.o2      1 <0>         2.7007
     22 O4         -0.1570   -9.2677    1.9391 O.2       1 <0>        -0.9586
     23 O5         -0.8440   -7.5555    0.2658 O.2       1 <0>        -0.9571
     24 N2          1.3205   -8.7251    0.0341 N.pl3     1 <0>        -1.2470
     25 H1         -2.8428   -0.8714    1.3576 H         1 <0>         0.0597
     26 H2         -4.2204    0.0398    2.0210 H         1 <0>         0.1055
     27 H3         -2.5642    0.6613    2.2186 H         1 <0>         0.0593
     28 H4         -0.8780   -0.5536    2.0162 H         1 <0>         0.1409
     29 H5          1.3746   -1.3175    2.6471 H         1 <0>         0.1323
     30 H6         -0.2160   -3.0558    6.2146 H         1 <0>         0.1363
     31 H7         -2.4663   -2.2823    5.5870 H         1 <0>         0.1440
     32 H8          4.5449   -4.6999    4.9259 H         1 <0>         0.2255
     33 H9          1.3384   -3.5835    2.0969 H         1 <0>         0.1347
     34 H10         0.3369   -5.3533    0.7129 H         1 <0>         0.1483
     35 H11         1.5126   -8.2860    3.5797 H         1 <0>         0.1510
     36 H12         2.5306   -6.5322    4.9721 H         1 <0>         0.1433
     37 H13         1.3093   -9.6440   -0.2764 H         1 <0>         0.4234
     38 H14         2.0204   -8.1219   -0.2612 H         1 <0>         0.4176
@<TRIPOS>BOND
     1    1    2 1
     2    1   25 1
     3    1   26 1
     4    1   27 1
     5    2    3 1
     6    3    8 ar
     7    3    4 ar
     8    4    5 ar
     9    4   28 1
    10    5    6 ar
    11    5   29 1
    12    6    7 ar
    13    6    9 1
    14    7    8 ar
    15    7   30 1
    16    8   31 1
    17    9   13 am
    18    9   10 1
    19   10   11 2
    20   10   15 1
    21   11   12 1
    22   11   32 1
    23   12   13 1
    24   13   14 2
    25   15   20 ar
    26   15   16 ar
    27   16   17 ar
    28   16   33 1
    29   17   18 ar
    30   17   34 1
    31   18   19 ar
    32   18   21 1
    33   19   20 ar
    34   19   35 1
    35   20   36 1
    36   21   22 2
    37   21   23 2
    38   21   24 1
    39   24   37 1
    40   24   38 1
@<TRIPOS>MOLECULE
CHEMBL106828
   33    34     0     0     0
SMALL
USER_CHARGES

@<TRIPOS>ATOM
      1 C1         -0.0187    1.5258    0.0104 C.3       1 <0>        -0.1181
      2 C2          0.0021   -0.0041    0.0020 C.3       1 <0>        -0.1375
      3 C3         -1.4117   -0.5257    0.0127 C.ar      1 <0>        -0.0120
      4 C4         -2.2575   -0.2025    1.0584 C.ar      1 <0>        -0.0795
      5 C5         -3.5532   -0.6779    1.0735 C.ar      1 <0>        -0.1055
      6 C6         -4.0088   -1.4843    0.0326 C.ar      1 <0>        -0.0808
      7 C7         -3.1527   -1.8063   -1.0184 C.ar      1 <0>        -0.1074
      8 C8         -1.8606   -1.3212   -1.0260 C.ar      1 <0>        -0.1294
      9 C9         -5.4008   -1.9988    0.0436 C.ar      1 <0>        -0.0646
     10 C10        -5.8629   -2.8115   -0.9920 C.ar      1 <0>        -0.0686
     11 C11        -7.1818   -3.2693   -0.9336 C.ar      1 <0>        -0.1096
     12 C12        -7.9795   -2.8984    0.1504 C.ar      1 <0>         0.0887
     13 N1         -7.5028   -2.1289    1.1073 N.ar      1 <0>        -0.4779
     14 C13        -6.2633   -1.6816    1.0917 C.ar      1 <0>         0.0984
     15 C14        -7.7244   -4.1329   -2.0037 C.2       1 <0>        -0.1095
     16 C15        -8.9771   -4.5615   -1.9382 C.2       1 <0>        -0.1796
     17 C16         0.7309   -0.5033    1.2229 C.2       1 <0>         0.5004
     18 O1          0.1557   -1.2165    2.0272 O.co2     1 <0>        -0.6855
     19 O2          1.8959   -0.1939    1.4064 O.co2     1 <0>        -0.6969
     20 H1          1.0039    1.9031    0.0027 H         1 <0>         0.0607
     21 H2         -0.5459    1.8868   -0.8726 H         1 <0>         0.0406
     22 H3         -0.5289    1.8773    0.9072 H         1 <0>         0.0482
     23 H4          0.5123   -0.3556   -0.8948 H         1 <0>         0.0716
     24 H5         -1.9033    0.4226    1.8647 H         1 <0>         0.1224
     25 H6         -4.2126   -0.4256    1.8908 H         1 <0>         0.1191
     26 H7         -3.5008   -2.4310   -1.8277 H         1 <0>         0.1156
     27 H8         -1.1974   -1.5669   -1.8422 H         1 <0>         0.1176
     28 H9         -5.2189   -3.0793   -1.8166 H         1 <0>         0.1376
     29 H10        -9.0004   -3.2465    0.2050 H         1 <0>         0.1541
     30 H11        -5.9123   -1.0570    1.8998 H         1 <0>         0.1594
     31 H12        -7.1003   -4.4146   -2.8388 H         1 <0>         0.1200
     32 H13        -9.6012   -4.2798   -1.1031 H         1 <0>         0.1020
     33 H14        -9.3735   -5.1924   -2.7200 H         1 <0>         0.1063
@<TRIPOS>BOND
     1    1    2 1
     2    1   20 1
     3    1   21 1
     4    1   22 1
     5    2    3 1
     6    2   17 1
     7    2   23 1
     8    3    8 ar
     9    3    4 ar
    10    4    5 ar
    11    4   24 1
    12    5    6 ar
    13    5   25 1
    14    6    7 ar
    15    6    9 1
    16    7    8 ar
    17    7   26 1
    18    8   27 1
    19    9   14 ar
    20    9   10 ar
    21   10   11 ar
    22   10   28 1
    23   11   12 ar
    24   11   15 1
    25   12   13 ar
    26   12   29 1
    27   13   14 ar
    28   14   30 1
    29   15   16 2
    30   15   31 1
    31   16   32 1
    32   16   33 1
    33   17   18 2
    34   17   19 1
@<TRIPOS>MOLECULE
CHEMBL106828__1
   33    34     0     0     0
SMALL
USER_CHARGES

@<TRIPOS>ATOM
      1 C1         -0.0187    1.5258    0.0104 C.3       1 <0>        -0.1169
      2 C2          0.0021   -0.0041    0.0020 C.3       1 <0>        -0.1350
      3 C3          0.7309   -0.5033    1.2229 C.ar      1 <0>        -0.0236
      4 C4          0.2605   -0.1855    2.4842 C.ar      1 <0>        -0.1034
      5 C5          0.9244   -0.6397    3.6058 C.ar      1 <0>        -0.1041
      6 C6          2.0702   -1.4200    3.4658 C.ar      1 <0>        -0.0796
      7 C7          2.5394   -1.7374    2.1928 C.ar      1 <0>        -0.1065
      8 C8          1.8647   -1.2823    1.0781 C.ar      1 <0>        -0.1238
      9 C9          2.7885   -1.9108    4.6681 C.ar      1 <0>        -0.0669
     10 C10         3.9398   -2.6878    4.5363 C.ar      1 <0>        -0.0677
     11 C11         4.5782   -3.1245    5.7000 C.ar      1 <0>        -0.1093
     12 C12         4.0432   -2.7690    6.9395 C.ar      1 <0>         0.0899
     13 N1          2.9535   -2.0333    7.0185 N.ar      1 <0>        -0.4776
     14 C13         2.3258   -1.5972    5.9450 C.ar      1 <0>         0.0991
     15 C14         5.8013   -3.9509    5.6199 C.2       1 <0>        -0.1101
     16 C15         6.3989   -4.3598    6.7302 C.2       1 <0>        -0.1788
     17 C16        -1.4117   -0.5257    0.0127 C.2       1 <0>         0.5040
     18 O1         -1.7102   -1.4919   -0.6684 O.co2     1 <0>        -0.6960
     19 O2         -2.2571    0.0185    0.7025 O.co2     1 <0>        -0.6884
     20 H1          1.0039    1.9031    0.0027 H         1 <0>         0.0373
     21 H2         -0.5459    1.8868   -0.8726 H         1 <0>         0.0491
     22 H3         -0.5289    1.8773    0.9072 H         1 <0>         0.0610
     23 H4          0.5123   -0.3556   -0.8948 H         1 <0>         0.0693
     24 H5         -0.6278    0.4193    2.5917 H         1 <0>         0.1369
     25 H6          0.5566   -0.3905    4.5902 H         1 <0>         0.1213
     26 H7          3.4270   -2.3419    2.0786 H         1 <0>         0.1176
     27 H8          2.2253   -1.5311    0.0909 H         1 <0>         0.1212
     28 H9          4.3269   -2.9451    3.5614 H         1 <0>         0.1380
     29 H10         4.5288   -3.1017    7.8450 H         1 <0>         0.1546
     30 H11         1.4380   -0.9922    6.0560 H         1 <0>         0.1596
     31 H12         6.2080   -4.2215    4.6567 H         1 <0>         0.1203
     32 H13         5.9922   -4.0891    7.6934 H         1 <0>         0.1021
     33 H14         7.2925   -4.9635    6.6716 H         1 <0>         0.1066
@<TRIPOS>BOND
     1    1    2 1
     2    1   20 1
     3    1   21 1
     4    1   22 1
     5    2    3 1
     6    2   17 1
     7    2   23 1
     8    3    8 ar
     9    3    4 ar
    10    4    5 ar
    11    4   24 1
    12    5    6 ar
    13    5   25 1
    14    6    7 ar
    15    6    9 1
    16    7    8 ar
    17    7   26 1
    18    8   27 1
    19    9   14 ar
    20    9   10 ar
    21   10   11 ar
    22   10   28 1
    23   11   12 ar
    24   11   15 1
    25   12   13 ar
    26   12   29 1
    27   13   14 ar
    28   14   30 1
    29   15   16 2
    30   15   31 1
    31   16   32 1
    32   16   33 1
    33   17   18 2
    34   17   19 1
@<TRIPOS>MOLECULE
CHEMBL171335
   45    48     0     0     0
SMALL
USER_CHARGES

@<TRIPOS>ATOM
      1 C1         -0.0169    1.3933    0.0097 C.ar      1 <0>        -0.0740
      2 C2          1.1693    2.0960    0.0022 C.ar      1 <0>        -0.1516
      3 C3          2.3789    1.4193   -0.0130 C.ar      1 <0>         0.1013
      4 C4          2.4043    0.0334   -0.0207 C.ar      1 <0>        -0.1510
      5 C5          1.2248   -0.6805   -0.0137 C.ar      1 <0>        -0.0755
      6 C6          0.0021   -0.0041    0.0020 C.ar      1 <0>        -0.0506
      7 C7         -1.2623   -0.7612    0.0105 C.2       1 <0>        -0.0678
      8 C8         -2.1639   -0.7530   -0.9819 C.2       1 <0>        -0.1000
      9 C9         -3.3408   -1.6420   -0.6387 C.3       1 <0>        -0.0590
     10 C10        -2.8472   -2.5015    0.5304 C.3       1 <0>        -0.0830
     11 C11        -1.7207   -1.6616    1.1384 C.3       1 <0>        -0.0730
     12 C12        -3.9127   -3.0099    1.4942 C.3       1 <0>        -0.1267
     13 C13        -3.9413   -4.2935    0.6431 C.3       1 <0>        -0.1420
     14 C14        -2.5043   -3.9510    0.2071 C.3       1 <0>        -0.1269
     15 C15        -2.0288    0.0150   -2.2326 C.ar      1 <0>         0.0318
     16 C16        -2.9177    1.0549   -2.5174 C.ar      1 <0>        -0.1306
     17 C17        -2.7850    1.7692   -3.6897 C.ar      1 <0>        -0.0153
     18 C18        -1.7748    1.4583   -4.5828 C.ar      1 <0>        -0.6773
     19 C19        -0.8911    0.4296   -4.3077 C.ar      1 <0>        -0.0146
     20 C20        -1.0076   -0.2894   -3.1365 C.ar      1 <0>        -0.1237
     21 S1         -1.6132    2.3765   -6.0780 S.o2      1 <0>         2.6999
     22 O1         -0.9281    1.5375   -6.9977 O.2       1 <0>        -0.9627
     23 O2         -2.8932    2.9271   -6.3568 O.2       1 <0>        -0.9628
     24 N1         -0.6073    3.6534   -5.7621 N.pl3     1 <0>        -1.2499
     25 F1          3.5380    2.1133   -0.0208 F         1 <0>        -0.1380
     26 H1         -0.9587    1.9216    0.0260 H         1 <0>         0.1313
     27 H2          1.1560    3.1759    0.0077 H         1 <0>         0.1374
     28 H3          3.3499   -0.4882   -0.0325 H         1 <0>         0.1383
     29 H4          1.2459   -1.7603   -0.0205 H         1 <0>         0.1344
     30 H5         -4.1961   -1.0393   -0.3329 H         1 <0>         0.0851
     31 H6         -3.6027   -2.2713   -1.4892 H         1 <0>         0.0785
     32 H7         -0.9034   -2.3022    1.4697 H         1 <0>         0.0789
     33 H8         -2.0997   -1.0669    1.9695 H         1 <0>         0.0846
     34 H9         -3.5467   -3.1656    2.5091 H         1 <0>         0.0850
     35 H10        -4.8418   -2.4409    1.4597 H         1 <0>         0.0708
     36 H11        -4.0116   -5.2067    1.2339 H         1 <0>         0.0688
     37 H12        -4.6640   -4.2598   -0.1722 H         1 <0>         0.0803
     38 H13        -2.3133   -4.1302   -0.8510 H         1 <0>         0.0695
     39 H14        -1.7373   -4.3746    0.8555 H         1 <0>         0.0840
     40 H15        -3.7068    1.2984   -1.8214 H         1 <0>         0.1354
     41 H16        -3.4715    2.5730   -3.9113 H         1 <0>         0.1449
     42 H17        -0.1053    0.1923   -5.0096 H         1 <0>         0.1441
     43 H18        -0.3141   -1.0887   -2.9207 H         1 <0>         0.1331
     44 H19        -0.2353    3.7697   -4.8738 H         1 <0>         0.4167
     45 H20        -0.3900    4.2852   -6.4654 H         1 <0>         0.4216
@<TRIPOS>BOND
     1    1    6 ar
     2    1    2 ar
     3    1   26 1
     4    2    3 ar
     5    2   27 1
     6    3    4 ar
     7    3   25 1
     8    4    5 ar
     9    4   28 1
    10    5    6 ar
    11    5   29 1
    12    6    7 1
    13    7   11 1
    14    7    8 2
    15    8    9 1
    16    8   15 1
    17    9   10 1
    18    9   30 1
    19    9   31 1
    20   10   14 1
    21   10   11 1
    22   10   12 1
    23   11   32 1
    24   11   33 1
    25   12   13 1
    26   12   34 1
    27   12   35 1
    28   13   14 1
    29   13   36 1
    30   13   37 1
    31   14   38 1
    32   14   39 1
    33   15   20 ar
    34   15   16 ar
    35   16   17 ar
    36   16   40 1
    37   17   18 ar
    38   17   41 1
    39   18   19 ar
    40   18   21 1
    41   19   20 ar
    42   19   42 1
    43   20   43 1
    44   21   22 2
    45   21   23 2
    46   21   24 1
    47   24   44 1
    48   24   45 1
@<TRIPOS>MOLECULE
CHEMBL118839
   42    44     0     0     0
SMALL
USER_CHARGES

@<TRIPOS>ATOM
      1 C1         -0.0187    1.5258    0.0104 C.3       1 <0>        -0.1375
      2 C2          0.0021   -0.0041    0.0020 C.3       1 <0>        -0.0519
      3 C3          0.8776   -0.5388   -1.1559 C.3       1 <0>         0.0551
      4 O1          1.4952   -1.7011   -0.5782 O.3       1 <0>        -0.2937
      5 C4          1.5941   -1.5352    0.7700 C.ar      1 <0>         0.1247
      6 C5          0.7293   -0.5431    1.2190 C.ar      1 <0>        -0.1565
      7 C6          0.6571   -0.2195    2.5529 C.ar      1 <0>        -0.0560
      8 C7          1.4664   -0.8871    3.4754 C.ar      1 <0>        -0.0359
      9 C8          2.3419   -1.8783    3.0296 C.ar      1 <0>        -0.0655
     10 C9          2.4037   -2.1971    1.6916 C.ar      1 <0>        -0.0842
     11 C10         3.3528   -3.2687    1.2205 C.3       1 <0>        -0.0220
     12 C11         4.1194   -3.8335    2.4181 C.3       1 <0>        -0.1473
     13 C12         2.5608   -4.3910    0.5466 C.3       1 <0>        -0.1406
     14 C13         4.3417   -2.6696    0.2185 C.3       1 <0>        -0.1409
     15 C14         1.3963   -0.5459    4.9122 C.2       1 <0>        -0.0940
     16 C15         2.1019   -1.0742    5.9597 C.2       1 <0>        -0.1569
     17 C16         1.8644   -0.5918    7.2287 C.2       1 <0>        -0.1514
     18 C17         0.9418    0.3887    7.4015 C.2       1 <0>        -0.1778
     19 S1          0.3752    0.6679    5.7318 S.3       1 <0>         0.0485
     20 C18        -1.4182   -0.5671   -0.0802 C.3       1 <0>        -0.1356
     21 H1          1.0039    1.9031    0.0027 H         1 <0>         0.0609
     22 H2         -0.5459    1.8868   -0.8726 H         1 <0>         0.0650
     23 H3         -0.5289    1.8773    0.9072 H         1 <0>         0.0637
     24 H4          0.2604   -0.8144   -2.0110 H         1 <0>         0.1079
     25 H5          1.6299    0.1961   -1.4422 H         1 <0>         0.0795
     26 H6         -0.0237    0.5494    2.8871 H         1 <0>         0.1244
     27 H7          2.9731   -2.3965    3.7363 H         1 <0>         0.1396
     28 H8          3.4149   -4.2603    3.1320 H         1 <0>         0.0590
     29 H9          4.8058   -4.6086    2.0774 H         1 <0>         0.0614
     30 H10         4.6836   -3.0339    2.8982 H         1 <0>         0.0589
     31 H11         2.0147   -3.9887   -0.3066 H         1 <0>         0.0650
     32 H12         3.2473   -5.1661    0.2059 H         1 <0>         0.0584
     33 H13         1.8563   -4.8178    1.2605 H         1 <0>         0.0536
     34 H14         4.9059   -1.8701    0.6986 H         1 <0>         0.0534
     35 H15         5.0281   -3.4448   -0.1223 H         1 <0>         0.0587
     36 H16         3.7956   -2.2673   -0.6347 H         1 <0>         0.0639
     37 H17         2.8304   -1.8543    5.7949 H         1 <0>         0.1339
     38 H18         2.4051   -0.9891    8.0749 H         1 <0>         0.1357
     39 H19         0.6327    0.8769    8.3139 H         1 <0>         0.1869
     40 H20        -1.8995   -0.2074   -0.9896 H         1 <0>         0.0653
     41 H21        -1.3769   -1.6562   -0.0973 H         1 <0>         0.0608
     42 H22        -1.9900   -0.2388    0.7878 H         1 <0>         0.0633
@<TRIPOS>BOND
     1    1    2 1
     2    1   21 1
     3    1   22 1
     4    1   23 1
     5    2    6 1
     6    2    3 1
     7    2   20 1
     8    3    4 1
     9    3   24 1
    10    3   25 1
    11    4    5 1
    12    5   10 ar
    13    5    6 ar
    14    6    7 ar
    15    7    8 ar
    16    7   26 1
    17    8    9 ar
    18    8   15 1
    19    9   10 ar
    20    9   27 1
    21   10   11 1
    22   11   12 1
    23   11   13 1
    24   11   14 1
    25   12   28 1
    26   12   29 1
    27   12   30 1
    28   13   31 1
    29   13   32 1
    30   13   33 1
    31   14   34 1
    32   14   35 1
    33   14   36 1
    34   15   19 1
    35   15   16 2
    36   16   17 1
    37   16   37 1
    38   17   18 2
    39   17   38 1
    40   18   19 1
    41   18   39 1
    42   20   40 1
    43   20   41 1
    44   20   42 1
@<TRIPOS>MOLECULE
CHEMBL418665
   39    43     0     0     0
SMALL
USER_CHARGES

@<TRIPOS>ATOM
      1 C1         -0.0184    1.5028    0.0103 C.3       1 <0>        -0.0894
      2 C2          0.0021   -0.0041    0.0020 C.2       1 <0>         0.0829
      3 C3         -1.0762   -0.8076    0.0026 C.2       1 <0>        -0.2892
      4 C4         -0.6254   -2.1466   -0.0073 C.2       1 <0>         0.3307
      5 N1          0.6829   -2.1299   -0.0135 N.2       1 <0>        -0.3459
      6 O1          1.0997   -0.7765   -0.0131 O.3       1 <0>        -0.0666
      7 N2         -1.4321   -3.2847   -0.0099 N.am      1 <0>        -0.6264
      8 C5         -2.7740   -3.1595   -0.0028 C.2       1 <0>         0.5496
      9 O2         -3.2802   -2.0574    0.0060 O.2       1 <0>        -0.4758
     10 C6         -3.6455   -4.3889   -0.0057 C.3       1 <0>        -0.0862
     11 C7         -5.1006   -4.0039    0.0927 C.ar      1 <0>        -0.0768
     12 C8         -5.9951   -3.2721   -0.6589 C.ar      1 <0>        -0.0609
     13 C9         -7.3033   -3.1404   -0.2179 C.ar      1 <0>        -0.0939
     14 C10        -7.7324   -3.7282    0.9629 C.ar      1 <0>        -0.0953
     15 C11        -6.8357   -4.4640    1.7203 C.ar      1 <0>         0.1090
     16 C12        -5.5389   -4.5799    1.2591 C.ar      1 <0>         0.0436
     17 N3         -4.5482   -5.2878    1.9272 N.am      1 <0>        -0.4904
     18 C13        -3.3916   -5.2231    1.2393 C.2       1 <0>         0.5417
     19 O3         -2.3392   -5.7368    1.5560 O.2       1 <0>        -0.4710
     20 C14        -4.9265   -5.9059    3.1352 C.ar      1 <0>         0.0865
     21 C15        -4.0025   -6.6299    3.8679 C.ar      1 <0>        -0.1040
     22 C16        -4.3826   -7.2341    5.0529 C.ar      1 <0>        -0.1128
     23 C17        -5.6842   -7.1135    5.5030 C.ar      1 <0>        -0.0930
     24 C18        -6.6106   -6.3907    4.7754 C.ar      1 <0>        -0.1104
     25 C19        -6.2405   -5.7806    3.5854 C.ar      1 <0>         0.0991
     26 O4         -7.1718   -5.0719    2.8861 O.3       1 <0>        -0.2386
     27 H1          1.0042    1.8801    0.0026 H         1 <0>         0.0870
     28 H2         -0.5455    1.8639   -0.8728 H         1 <0>         0.0986
     29 H3         -0.5286    1.8543    0.9071 H         1 <0>         0.0979
     30 H4         -2.1071   -0.4855    0.0097 H         1 <0>         0.1824
     31 H5         -1.0273   -4.1661   -0.0170 H         1 <0>         0.4296
     32 H6         -3.4658   -4.9802   -0.9036 H         1 <0>         0.1696
     33 H7         -5.6803   -2.8061   -1.5809 H         1 <0>         0.1436
     34 H8         -8.0036   -2.5669   -0.8070 H         1 <0>         0.1477
     35 H9         -8.7556   -3.6130    1.2888 H         1 <0>         0.1507
     36 H10        -2.9859   -6.7228    3.5153 H         1 <0>         0.1469
     37 H11        -3.6630   -7.7999    5.6260 H         1 <0>         0.1399
     38 H12        -5.9785   -7.5864    6.4283 H         1 <0>         0.1426
     39 H13        -7.6255   -6.3011    5.1337 H         1 <0>         0.1472
@<TRIPOS>BOND
     1    1    2 1
     2    1   27 1
     3    1   28 1
     4    1   29 1
     5    2    6 1
     6    2    3 2
     7    3    4 1
     8    3   30 1
     9    4    5 2
    10    4    7 1
    11    5    6 1
    12    7    8 am
    13    7   31 1
    14    8    9 2
    15    8   10 1
    16   10   18 1
    17   10   11 1
    18   10   32 1
    19   11   16 ar
    20   11   12 ar
    21   12   13 ar
    22   12   33 1
    23   13   14 ar
    24   13   34 1
    25   14   15 ar
    26   14   35 1
    27   15   26 1
    28   15   16 ar
    29   16   17 1
    30   17   18 am
    31   17   20 1
    32   18   19 2
    33   20   25 ar
    34   20   21 ar
    35   21   22 ar
    36   21   36 1
    37   22   23 ar
    38   22   37 1
    39   23   24 ar
    40   23   38 1
    41   24   25 ar
    42   24   39 1
    43   25   26 1
@<TRIPOS>MOLECULE
CHEMBL418665__1
   38    42     0     0     0
SMALL
USER_CHARGES

@<TRIPOS>ATOM
      1 C1         -0.0184    1.5028    0.0103 C.3       1 <0>        -0.0817
      2 C2          0.0021   -0.0041    0.0020 C.2       1 <0>         0.0602
      3 C3         -1.0762   -0.8074    0.0026 C.2       1 <0>        -0.2779
      4 C4         -0.6253   -2.1467   -0.0067 C.2       1 <0>         0.3431
      5 N1          0.6832   -2.1300   -0.0127 N.2       1 <0>        -0.3689
      6 O1          1.0997   -0.7764   -0.0131 O.3       1 <0>        -0.0848
      7 N2         -1.4315   -3.2839   -0.0088 N.am      1 <0>        -0.6294
      8 C5         -2.7734   -3.1587   -0.0015 C.2       1 <0>         0.6579
      9 O2         -3.2816   -2.0523    0.0069 O.2       1 <0>        -0.5227
     10 C6         -3.6188   -4.3514   -0.0036 C.2       1 <0>        -0.4446
     11 C7         -4.1267   -5.0721    1.1756 C.ar      1 <0>         0.0450
     12 C8         -4.0516   -4.9717    2.5647 C.ar      1 <0>        -0.1465
     13 C9         -4.7112   -5.9046    3.3417 C.ar      1 <0>        -0.0924
     14 C10        -5.4501   -6.9437    2.7837 C.ar      1 <0>        -0.1743
     15 C11        -5.5331   -7.0553    1.4071 C.ar      1 <0>         0.1193
     16 C12        -4.8689   -6.1165    0.6484 C.ar      1 <0>        -0.0277
     17 N3         -4.8524   -6.0886   -0.7276 N.pl3     1 <0>        -0.4607
     18 C13        -4.1070   -5.0254   -1.1235 C.2       1 <0>         0.4964
     19 O3         -3.8709   -4.6748   -2.4077 O.3       1 <0>        -0.6723
     20 C14        -5.5767   -7.1080   -1.3717 C.ar      1 <0>         0.1213
     21 C15        -5.6224   -7.1697   -2.7532 C.ar      1 <0>        -0.1129
     22 C16        -6.3379   -8.1760   -3.3764 C.ar      1 <0>        -0.1190
     23 C17        -7.0064   -9.1191   -2.6181 C.ar      1 <0>        -0.1190
     24 C18        -6.9644   -9.0626   -1.2382 C.ar      1 <0>        -0.1199
     25 C19        -6.2494   -8.0581   -0.6014 C.ar      1 <0>         0.0851
     26 O4         -6.2260   -8.0284    0.7631 O.3       1 <0>        -0.2500
     27 H1          1.0042    1.8801    0.0026 H         1 <0>         0.0805
     28 H2         -0.5455    1.8639   -0.8728 H         1 <0>         0.0926
     29 H3         -0.5286    1.8543    0.9071 H         1 <0>         0.0924
     30 H4         -2.1070   -0.4853    0.0094 H         1 <0>         0.1816
     31 H5         -1.0266   -4.1654   -0.0155 H         1 <0>         0.4196
     32 H6         -3.4856   -4.1762    3.0265 H         1 <0>         0.1173
     33 H7         -4.6513   -5.8250    4.4171 H         1 <0>         0.1209
     34 H8         -5.9538   -7.6567    3.4196 H         1 <0>         0.1263
     35 H9         -5.0999   -6.4323   -3.3445 H         1 <0>         0.1503
     36 H10        -6.3746   -8.2248   -4.4547 H         1 <0>         0.1290
     37 H11        -7.5648   -9.9038   -3.1069 H         1 <0>         0.1303
     38 H12        -7.4898   -9.8029   -0.6531 H         1 <0>         0.1356
@<TRIPOS>BOND
     1    1    2 1
     2    1   27 1
     3    1   28 1
     4    1   29 1
     5    2    6 1
     6    2    3 2
     7    3    4 1
     8    3   30 1
     9    4    5 2
    10    4    7 1
    11    5    6 1
    12    7    8 am
    13    7   31 1
    14    8    9 2
    15    8   10 1
    16   10   18 2
    17   10   11 1
    18   11   16 ar
    19   11   12 ar
    20   12   13 ar
    21   12   32 1
    22   13   14 ar
    23   13   33 1
    24   14   15 ar
    25   14   34 1
    26   15   26 1
    27   15   16 ar
    28   16   17 1
    29   17   18 1
    30   17   20 1
    31   18   19 1
    32   20   25 ar
    33   20   21 ar
    34   21   22 ar
    35   21   35 1
    36   22   23 ar
    37   22   36 1
    38   23   24 ar
    39   23   37 1
    40   24   25 ar
    41   24   38 1
    42   25   26 1
@<TRIPOS>MOLECULE
CHEMBL418665__2
   39    43     0     0     0
SMALL
USER_CHARGES

@<TRIPOS>ATOM
      1 C1         -0.0184    1.5028    0.0103 C.3       1 <0>        -0.0894
      2 C2          0.0021   -0.0041    0.0020 C.2       1 <0>         0.0829
      3 C3         -1.0762   -0.8076    0.0026 C.2       1 <0>        -0.2892
      4 C4         -0.6254   -2.1466   -0.0073 C.2       1 <0>         0.3307
      5 N1          0.6829   -2.1299   -0.0135 N.2       1 <0>        -0.3459
      6 O1          1.0997   -0.7765   -0.0131 O.3       1 <0>        -0.0666
      7 N2         -1.4321   -3.2847   -0.0099 N.am      1 <0>        -0.6264
      8 C5         -2.7740   -3.1595   -0.0028 C.2       1 <0>         0.5496
      9 O2         -3.2802   -2.0574    0.0060 O.2       1 <0>        -0.4758
     10 C6         -3.6455   -4.3889   -0.0057 C.3       1 <0>        -0.0862
     11 C7         -5.1015   -4.0029   -0.0856 C.ar      1 <0>        -0.0768
     12 C8         -5.9893   -3.2821    0.6843 C.ar      1 <0>        -0.0610
     13 C9         -7.3016   -3.1451    0.2573 C.ar      1 <0>        -0.0939
     14 C10        -7.7415   -3.7173   -0.9272 C.ar      1 <0>        -0.0953
     15 C11        -6.8515   -4.4422   -1.7028 C.ar      1 <0>         0.1089
     16 C12        -5.5504   -4.5638   -1.2553 C.ar      1 <0>         0.0436
     17 N3         -4.5667   -5.2651   -1.9402 N.am      1 <0>        -0.4903
     18 C13        -3.4036   -5.2087   -1.2625 C.2       1 <0>         0.5417
     19 O3         -2.3544   -5.7191   -1.5949 O.2       1 <0>        -0.4710
     20 C14        -4.9567   -5.8697   -3.1513 C.ar      1 <0>         0.0865
     21 C15        -4.0413   -6.5902   -3.8982 C.ar      1 <0>        -0.1040
     22 C16        -4.4327   -7.1803   -5.0866 C.ar      1 <0>        -0.1127
     23 C17        -5.7369   -7.0494   -5.5259 C.ar      1 <0>        -0.0930
     24 C18        -6.6550   -6.3308   -4.7837 C.ar      1 <0>        -0.1104
     25 C19        -6.2737   -5.7354   -3.5897 C.ar      1 <0>         0.0990
     26 O4         -7.1979   -5.0336   -2.8741 O.3       1 <0>        -0.2386
     27 H1          1.0042    1.8801    0.0026 H         1 <0>         0.0870
     28 H2         -0.5455    1.8639   -0.8728 H         1 <0>         0.0979
     29 H3         -0.5286    1.8543    0.9071 H         1 <0>         0.0986
     30 H4         -2.1071   -0.4855    0.0097 H         1 <0>         0.1824
     31 H5         -1.0273   -4.1661   -0.0170 H         1 <0>         0.4295
     32 H6         -3.4572   -4.9904    0.8836 H         1 <0>         0.1696
     33 H7         -5.6665   -2.8294    1.6101 H         1 <0>         0.1436
     34 H8         -7.9968   -2.5805    0.8608 H         1 <0>         0.1477
     35 H9         -8.7680   -3.5991   -1.2416 H         1 <0>         0.1507
     36 H10        -3.0228   -6.6921   -3.5535 H         1 <0>         0.1469
     37 H11        -3.7198   -7.7433   -5.6707 H         1 <0>         0.1399
     38 H12        -6.0399   -7.5107   -6.4542 H         1 <0>         0.1426
     39 H13        -7.6719   -6.2326   -5.1338 H         1 <0>         0.1471
@<TRIPOS>BOND
     1    1    2 1
     2    1   27 1
     3    1   28 1
     4    1   29 1
     5    2    6 1
     6    2    3 2
     7    3    4 1
     8    3   30 1
     9    4    5 2
    10    4    7 1
    11    5    6 1
    12    7    8 am
    13    7   31 1
    14    8    9 2
    15    8   10 1
    16   10   18 1
    17   10   11 1
    18   10   32 1
    19   11   16 ar
    20   11   12 ar
    21   12   13 ar
    22   12   33 1
    23   13   14 ar
    24   13   34 1
    25   14   15 ar
    26   14   35 1
    27   15   26 1
    28   15   16 ar
    29   16   17 1
    30   17   18 am
    31   17   20 1
    32   18   19 2
    33   20   25 ar
    34   20   21 ar
    35   21   22 ar
    36   21   36 1
    37   22   23 ar
    38   22   37 1
    39   23   24 ar
    40   23   38 1
    41   24   25 ar
    42   24   39 1
    43   25   26 1
@<TRIPOS>MOLECULE
CHEMBL421385
   56    59     0     0     0
SMALL
USER_CHARGES

@<TRIPOS>ATOM
      1 C1         -0.0182    1.5027    0.0102 C.3       1 <0>        -0.1052
      2 C2          0.0021   -0.0042    0.0020 C.2       1 <0>         0.1236
      3 C3          0.0074   -0.7679   -1.0995 C.2       1 <0>        -0.1454
      4 C4          0.0293   -2.1662   -0.6567 C.ar      1 <0>        -0.0346
      5 C5          0.0428   -3.3917   -1.3243 C.ar      1 <0>        -0.1103
      6 C6          0.0625   -4.5656   -0.5961 C.ar      1 <0>         0.1131
      7 C7          0.0688   -4.5275    0.7953 C.ar      1 <0>        -0.1752
      8 C8          0.0551   -3.3226    1.4635 C.ar      1 <0>        -0.0826
      9 C9          0.0357   -2.1316    0.7482 C.ar      1 <0>         0.0768
     10 N1          0.0240   -0.7990    1.1223 N.am      1 <0>        -0.5040
     11 C10         0.0297   -0.3494    2.3928 C.2       1 <0>         0.6029
     12 O1         -1.0174   -0.0751    2.9450 O.2       1 <0>        -0.4281
     13 C11         1.3084   -0.1902    3.1139 C.ar      1 <0>        -0.1665
     14 C12         2.5190   -0.3985    2.4491 C.ar      1 <0>        -0.0418
     15 C13         3.7097   -0.2483    3.1279 C.ar      1 <0>        -0.1204
     16 C14         3.7070    0.1084    4.4664 C.ar      1 <0>         0.0042
     17 C15         2.5096    0.3160    5.1314 C.ar      1 <0>        -0.1236
     18 C16         1.3125    0.1750    4.4621 C.ar      1 <0>        -0.0381
     19 Cl1         5.2103    0.2955    5.3141 Cl        1 <0>        -0.0523
     20 O2          0.0753   -5.7626   -1.2410 O.3       1 <0>        -0.3165
     21 C17         0.0954   -6.9375   -0.4278 C.3       1 <0>         0.0271
     22 C18        -0.0069   -0.2812   -2.5257 C.3       1 <0>        -0.0511
     23 C19         1.4090   -0.0991   -3.0085 C.2       1 <0>         0.5228
     24 O3          2.3382   -0.3408   -2.2676 O.2       1 <0>        -0.5051
     25 N2          1.6427    0.3323   -4.2638 N.am      1 <0>        -0.6047
     26 O4          2.9731    0.5033   -4.7176 O.3       1 <0>        -0.1373
     27 C20         3.0723    0.9650   -6.0663 C.3       1 <0>         0.0755
     28 C21         4.5245    1.1108   -6.4417 C.ar      1 <0>        -0.0952
     29 C22         5.1783    2.3087   -6.2220 C.ar      1 <0>        -0.0939
     30 C23         6.5104    2.4425   -6.5663 C.ar      1 <0>        -0.1230
     31 C24         7.1888    1.3781   -7.1300 C.ar      1 <0>        -0.1073
     32 C25         6.5352    0.1798   -7.3490 C.ar      1 <0>        -0.1228
     33 C26         5.2043    0.0447   -7.0007 C.ar      1 <0>        -0.0935
     34 H1          1.0044    1.8799    0.0025 H         1 <0>         0.0872
     35 H2         -0.5453    1.8638   -0.8729 H         1 <0>         0.0927
     36 H3         -0.5284    1.8543    0.9070 H         1 <0>         0.0712
     37 H4          0.0376   -3.4222   -2.4038 H         1 <0>         0.1330
     38 H5          0.0842   -5.4504    1.3560 H         1 <0>         0.1356
     39 H6          0.0595   -3.3039    2.5434 H         1 <0>         0.1227
     40 H7          2.5224   -0.6770    1.4056 H         1 <0>         0.1449
     41 H8          4.6464   -0.4095    2.6151 H         1 <0>         0.1454
     42 H9          2.5140    0.5936    6.1751 H         1 <0>         0.1463
     43 H10         0.3798    0.3418    4.9804 H         1 <0>         0.1476
     44 H11        -0.7911   -6.9558    0.2062 H         1 <0>         0.0553
     45 H12         0.1040   -7.8210   -1.0660 H         1 <0>         0.1004
     46 H13         0.9887   -6.9318    0.1968 H         1 <0>         0.0553
     47 H14        -0.5139   -1.0132   -3.1543 H         1 <0>         0.1109
     48 H15        -0.5343    0.6712   -2.5793 H         1 <0>         0.1083
     49 H16         0.8995    0.5256   -4.8565 H         1 <0>         0.4062
     50 H17         2.5953    0.2461   -6.7324 H         1 <0>         0.0710
     51 H18         2.5748    1.9305   -6.1574 H         1 <0>         0.0707
     52 H19         4.6483    3.1403   -5.7815 H         1 <0>         0.1246
     53 H20         7.0210    3.3786   -6.3953 H         1 <0>         0.1263
     54 H21         8.2293    1.4828   -7.3997 H         1 <0>         0.1254
     55 H22         7.0652   -0.6516   -7.7897 H         1 <0>         0.1265
     56 H23         4.6947   -0.8926   -7.1683 H         1 <0>         0.1250
@<TRIPOS>BOND
     1    1    2 1
     2    1   34 1
     3    1   35 1
     4    1   36 1
     5    2   10 1
     6    2    3 2
     7    3    4 1
     8    3   22 1
     9    4    9 ar
    10    4    5 ar
    11    5    6 ar
    12    5   37 1
    13    6    7 ar
    14    6   20 1
    15    7    8 ar
    16    7   38 1
    17    8    9 ar
    18    8   39 1
    19    9   10 1
    20   10   11 am
    21   11   12 2
    22   11   13 1
    23   13   18 ar
    24   13   14 ar
    25   14   15 ar
    26   14   40 1
    27   15   16 ar
    28   15   41 1
    29   16   17 ar
    30   16   19 1
    31   17   18 ar
    32   17   42 1
    33   18   43 1
    34   20   21 1
    35   21   44 1
    36   21   45 1
    37   21   46 1
    38   22   23 1
    39   22   47 1
    40   22   48 1
    41   23   24 2
    42   23   25 am
    43   25   26 1
    44   25   49 1
    45   26   27 1
    46   27   28 1
    47   27   50 1
    48   27   51 1
    49   28   33 ar
    50   28   29 ar
    51   29   30 ar
    52   29   52 1
    53   30   31 ar
    54   30   53 1
    55   31   32 ar
    56   31   54 1
    57   32   33 ar
    58   32   55 1
    59   33   56 1
@<TRIPOS>MOLECULE
CHEMBL421608
   49    51     0     0     0
SMALL
USER_CHARGES

@<TRIPOS>ATOM
      1 C1         -0.0187    1.5258    0.0104 C.3       1 <0>        -0.1601
      2 C2          0.0021   -0.0041    0.0020 C.3       1 <0>         0.0642
      3 C3          0.8512   -0.5399   -1.1753 C.3       1 <0>        -0.1428
      4 C4          2.2131   -0.7366   -0.5369 C.2       1 <0>         0.1321
      5 N1          2.0665   -0.7086    0.7459 N.2       1 <0>        -0.2894
      6 O1          0.7226   -0.5167    1.1411 O.3       1 <0>        -0.1877
      7 C5          3.4862   -0.9275   -1.2576 C.ar      1 <0>        -0.0732
      8 C6          4.6779   -1.1046   -0.5482 C.ar      1 <0>        -0.0290
      9 C7          5.8581   -1.2829   -1.2277 C.ar      1 <0>        -0.1649
     10 C8          5.8875   -1.2967   -2.6188 C.ar      1 <0>         0.1399
     11 C9          4.6985   -1.1150   -3.3246 C.ar      1 <0>        -0.0919
     12 C10         3.5100   -0.9385   -2.6541 C.ar      1 <0>        -0.0537
     13 C11         4.7145   -1.1178   -4.8315 C.3       1 <0>        -0.0217
     14 C12         3.2941   -0.9006   -5.3571 C.3       1 <0>        -0.1478
     15 C13         5.6217    0.0071   -5.3339 C.3       1 <0>        -0.1414
     16 C14         5.2440   -2.4626   -5.3334 C.3       1 <0>        -0.1414
     17 O2          7.1498   -1.5092   -3.0813 O.3       1 <0>        -0.2922
     18 C15         8.0935   -1.2059   -2.0402 C.3       1 <0>         0.0545
     19 C16         7.2841   -1.4842   -0.7516 C.3       1 <0>        -0.0512
     20 C17         7.6410   -0.4798    0.3459 C.3       1 <0>        -0.1381
     21 C18         7.5018   -2.9194   -0.2684 C.3       1 <0>        -0.1363
     22 C19        -1.4194   -0.5679   -0.0458 C.3       1 <0>        -0.1408
     23 H1          1.0039    1.9031    0.0027 H         1 <0>         0.0600
     24 H2         -0.5459    1.8868   -0.8726 H         1 <0>         0.0739
     25 H3         -0.5289    1.8773    0.9072 H         1 <0>         0.0718
     26 H4          0.4539   -1.4875   -1.5391 H         1 <0>         0.1053
     27 H5          0.9033    0.1934   -1.9800 H         1 <0>         0.1035
     28 H6          4.6704   -1.1009    0.5318 H         1 <0>         0.1330
     29 H7          2.5934   -0.8039   -3.2092 H         1 <0>         0.1416
     30 H8          2.9169    0.0575   -4.9995 H         1 <0>         0.0590
     31 H9          3.3057   -0.9026   -6.4470 H         1 <0>         0.0623
     32 H10         2.6478   -1.7020   -4.9991 H         1 <0>         0.0593
     33 H11         6.6337   -0.1475   -4.9595 H         1 <0>         0.0638
     34 H12         5.6333    0.0051   -6.4239 H         1 <0>         0.0594
     35 H13         5.2445    0.9652   -4.9764 H         1 <0>         0.0538
     36 H14         4.5977   -3.2640   -4.9755 H         1 <0>         0.0540
     37 H15         5.2556   -2.4646   -6.4233 H         1 <0>         0.0590
     38 H16         6.2559   -2.6173   -4.9590 H         1 <0>         0.0652
     39 H17         8.9604   -1.8638   -2.1013 H         1 <0>         0.1094
     40 H18         8.3972   -0.1601   -2.0871 H         1 <0>         0.0808
     41 H19         6.9674   -0.6121    1.1926 H         1 <0>         0.0652
     42 H20         8.6685   -0.6454    0.6698 H         1 <0>         0.0654
     43 H21         7.5415    0.5337   -0.0427 H         1 <0>         0.0608
     44 H22         7.3048   -3.6121   -1.0867 H         1 <0>         0.0609
     45 H23         8.5320   -3.0374    0.0675 H         1 <0>         0.0659
     46 H24         6.8236   -3.1313    0.5581 H         1 <0>         0.0642
     47 H25        -1.9143   -0.2290   -0.9560 H         1 <0>         0.0767
     48 H26        -1.3787   -1.6571   -0.0384 H         1 <0>         0.0670
     49 H27        -1.9780   -0.2193    0.8228 H         1 <0>         0.0719
@<TRIPOS>BOND
     1    1    2 1
     2    1   23 1
     3    1   24 1
     4    1   25 1
     5    2    6 1
     6    2    3 1
     7    2   22 1
     8    3    4 1
     9    3   26 1
    10    3   27 1
    11    4    5 2
    12    4    7 1
    13    5    6 1
    14    7   12 ar
    15    7    8 ar
    16    8    9 ar
    17    8   28 1
    18    9   19 1
    19    9   10 ar
    20   10   11 ar
    21   10   17 1
    22   11   12 ar
    23   11   13 1
    24   12   29 1
    25   13   14 1
    26   13   15 1
    27   13   16 1
    28   14   30 1
    29   14   31 1
    30   14   32 1
    31   15   33 1
    32   15   34 1
    33   15   35 1
    34   16   36 1
    35   16   37 1
    36   16   38 1
    37   17   18 1
    38   18   19 1
    39   18   39 1
    40   18   40 1
    41   19   20 1
    42   19   21 1
    43   20   41 1
    44   20   42 1
    45   20   43 1
    46   21   44 1
    47   21   45 1
    48   21   46 1
    49   22   47 1
    50   22   48 1
    51   22   49 1
@<TRIPOS>MOLECULE
CHEMBL119720
   48    50     0     0     0
SMALL
USER_CHARGES

@<TRIPOS>ATOM
      1 C1          0.0227    1.3181   -0.2200 C.3       1 <0>        -0.1364
      2 C2          0.0416   -0.2090   -0.1266 C.3       1 <0>        -0.0503
      3 C3         -1.3844   -0.7674    0.0926 C.3       1 <0>         0.0539
      4 O1         -1.4754   -0.8574    1.5243 O.3       1 <0>        -0.2916
      5 C4         -0.2316   -1.0367    2.0444 C.ar      1 <0>         0.1486
      6 C5          0.7532   -0.6665    1.1323 C.ar      1 <0>        -0.1739
      7 C6          2.0841   -0.7550    1.4560 C.ar      1 <0>        -0.0301
      8 C7          2.4643   -1.2301    2.7154 C.ar      1 <0>        -0.1767
      9 C8          1.4807   -1.6104    3.6323 C.ar      1 <0>        -0.0302
     10 C9          0.1502   -1.5141    3.2990 C.ar      1 <0>        -0.0999
     11 C10        -0.9028   -1.9271    4.2949 C.3       1 <0>        -0.0219
     12 C11        -0.2277   -2.4091    5.5805 C.3       1 <0>        -0.1482
     13 C12        -1.8041   -0.7314    4.6096 C.3       1 <0>        -0.1406
     14 C13        -1.7456   -3.0600    3.7057 C.3       1 <0>        -0.1410
     15 C14         3.8935   -1.3286    3.0734 C.2       1 <0>         0.4715
     16 O2          4.2624   -2.1597    3.8832 O.2       1 <0>        -0.4690
     17 C15         4.8678   -0.4263    2.4541 C.2       1 <0>        -0.0802
     18 C16         4.5808    0.6419    1.6270 C.2       1 <0>        -0.1286
     19 C17         5.8003    1.2221    1.2681 C.2       1 <0>        -0.2109
     20 C18         6.7898    0.5157    1.8677 C.2       1 <0>         0.0229
     21 N1          6.2360   -0.4848    2.5953 N.pl3     1 <0>        -0.4136
     22 C19         6.9712   -1.4672    3.3957 C.3       1 <0>         0.0606
     23 C20         0.6846   -0.8224   -1.3721 C.3       1 <0>        -0.1382
     24 H1          1.0458    1.6935   -0.2401 H         1 <0>         0.0648
     25 H2         -0.4932    1.6200   -1.1314 H         1 <0>         0.0656
     26 H3         -0.4980    1.7285    0.6452 H         1 <0>         0.0610
     27 H4         -2.1330   -0.0788   -0.2992 H         1 <0>         0.1094
     28 H5         -1.4877   -1.7520   -0.3634 H         1 <0>         0.0808
     29 H6          2.8361   -0.4589    0.7396 H         1 <0>         0.1405
     30 H7          1.7664   -1.9812    4.6056 H         1 <0>         0.1446
     31 H8          0.3727   -1.6020    6.0003 H         1 <0>         0.0591
     32 H9         -0.9893   -2.7078    6.3008 H         1 <0>         0.0619
     33 H10         0.4144   -3.2609    5.3564 H         1 <0>         0.0602
     34 H11        -2.2850   -0.3880    3.6937 H         1 <0>         0.0646
     35 H12        -2.5657   -1.0302    5.3299 H         1 <0>         0.0589
     36 H13        -1.2037    0.0757    5.0293 H         1 <0>         0.0539
     37 H14        -1.1035   -3.9118    3.4816 H         1 <0>         0.0538
     38 H15        -2.5072   -3.3587    4.4261 H         1 <0>         0.0593
     39 H16        -2.2265   -2.7166    2.7899 H         1 <0>         0.0634
     40 H17         3.5991    0.9671    1.3158 H         1 <0>         0.1501
     41 H18         5.9313    2.0809    0.6265 H         1 <0>         0.1448
     42 H19         7.8470    0.7196    1.7828 H         1 <0>         0.1701
     43 H20         7.2111   -2.3327    2.7781 H         1 <0>         0.0770
     44 H21         7.8929   -1.0180    3.7655 H         1 <0>         0.0856
     45 H22         6.3565   -1.7819    4.2391 H         1 <0>         0.1029
     46 H23         1.7136   -0.4736   -1.4590 H         1 <0>         0.0655
     47 H24         0.6752   -1.9091   -1.2880 H         1 <0>         0.0606
     48 H25         0.1230   -0.5216   -2.2565 H         1 <0>         0.0652
@<TRIPOS>BOND
     1    1    2 1
     2    1   24 1
     3    1   25 1
     4    1   26 1
     5    2    6 1
     6    2    3 1
     7    2   23 1
     8    3    4 1
     9    3   27 1
    10    3   28 1
    11    4    5 1
    12    5   10 ar
    13    5    6 ar
    14    6    7 ar
    15    7    8 ar
    16    7   29 1
    17    8    9 ar
    18    8   15 1
    19    9   10 ar
    20    9   30 1
    21   10   11 1
    22   11   12 1
    23   11   13 1
    24   11   14 1
    25   12   31 1
    26   12   32 1
    27   12   33 1
    28   13   34 1
    29   13   35 1
    30   13   36 1
    31   14   37 1
    32   14   38 1
    33   14   39 1
    34   15   16 2
    35   15   17 1
    36   17   21 1
    37   17   18 2
    38   18   19 1
    39   18   40 1
    40   19   20 2
    41   19   41 1
    42   20   21 1
    43   20   42 1
    44   21   22 1
    45   22   43 1
    46   22   44 1
    47   22   45 1
    48   23   46 1
    49   23   47 1
    50   23   48 1
@<TRIPOS>MOLECULE
CHEMBL350729
   31    33     0     0     0
SMALL
USER_CHARGES

@<TRIPOS>ATOM
      1 C1          2.1166    1.4196   -0.7316 C.ar      1 <0>        -0.0965
      2 C2          1.1739    2.0857    0.0303 C.ar      1 <0>        -0.1051
      3 C3          0.2530    1.3724    0.7752 C.ar      1 <0>        -0.1648
      4 C4          0.2713   -0.0086    0.7602 C.ar      1 <0>        -0.0742
      5 C5          1.2164   -0.6808   -0.0042 C.ar      1 <0>         0.1753
      6 C6          2.1406    0.0391   -0.7511 C.ar      1 <0>        -0.1232
      7 N1          1.2381   -2.0780   -0.0212 N.pl3     1 <0>        -0.6476
      8 C7          0.0531   -2.7920    0.0915 C.ar      1 <0>         0.4173
      9 C8          0.0887   -4.1926    0.1947 C.ar      1 <0>        -0.0937
     10 C9         -1.1170   -4.8904    0.3077 C.ar      1 <0>        -0.0119
     11 C10        -2.2985   -4.1666    0.3129 C.ar      1 <0>        -0.2188
     12 C11        -2.2529   -2.7894    0.2074 C.ar      1 <0>         0.1499
     13 N2         -1.1030   -2.1493    0.1066 N.ar      1 <0>        -0.5278
     14 C12         1.3763   -4.9143    0.1834 C.2       1 <0>         0.1400
     15 N3          2.5678   -4.3751    0.0883 N.2       1 <0>        -0.2921
     16 N4          3.4597   -5.3020    0.1105 N.2       1 <0>        -0.3358
     17 C13         2.8728   -6.4708    0.2208 C.2       1 <0>         0.3421
     18 O1          1.5447   -6.2522    0.2752 O.3       1 <0>        -0.2320
     19 S1          3.6753   -8.0379    0.2922 S.3       1 <0>        -0.7159
     20 C14        -0.7717    2.1026    1.6047 C.3       1 <0>         0.5104
     21 F1         -0.5917    3.4823    1.4597 F         1 <0>        -0.1799
     22 F2         -2.0558    1.7520    1.1742 F         1 <0>        -0.1749
     23 F3         -0.6188    1.7511    2.9501 F         1 <0>        -0.1781
     24 H1          2.8319    1.9797   -1.3155 H         1 <0>         0.1358
     25 H2          1.1574    3.1655    0.0438 H         1 <0>         0.1346
     26 H3         -0.4481   -0.5652    1.3425 H         1 <0>         0.1458
     27 H4          2.8768   -0.4804   -1.3465 H         1 <0>         0.1349
     28 H5          2.0813   -2.5489   -0.1119 H         1 <0>         0.4397
     29 H6         -1.1275   -5.9673    0.3886 H         1 <0>         0.1441
     30 H7         -3.2476   -4.6748    0.3984 H         1 <0>         0.1402
     31 H8         -3.1746   -2.2265    0.2112 H         1 <0>         0.1623
@<TRIPOS>BOND
     1    1    6 ar
     2    1    2 ar
     3    1   24 1
     4    2    3 ar
     5    2   25 1
     6    3    4 ar
     7    3   20 1
     8    4    5 ar
     9    4   26 1
    10    5    6 ar
    11    5    7 1
    12    6   27 1
    13    7    8 1
    14    7   28 1
    15    8   13 ar
    16    8    9 ar
    17    9   10 ar
    18    9   14 1
    19   10   11 ar
    20   10   29 1
    21   11   12 ar
    22   11   30 1
    23   12   13 ar
    24   12   31 1
    25   14   18 1
    26   14   15 2
    27   15   16 1
    28   16   17 2
    29   17   18 1
    30   17   19 1
    31   20   21 1
    32   20   22 1
    33   20   23 1
@<TRIPOS>MOLECULE
CHEMBL23175
   38    40     0     0     0
SMALL
USER_CHARGES

@<TRIPOS>ATOM
      1 C1         -0.0225    1.8097    0.0120 C.3       1 <0>        -0.6500
      2 S1          0.0021   -0.0041    0.0020 S.o2      1 <0>         2.4972
      3 O1          0.8352   -0.4880    1.0465 O.2       1 <0>        -0.9344
      4 O2         -1.3147   -0.5105   -0.1678 O.2       1 <0>        -0.9347
      5 C2          0.8454   -0.4373   -1.4831 C.ar      1 <0>        -0.6523
      6 C3          0.1296   -0.6119   -2.6552 C.ar      1 <0>        -0.0205
      7 C4          0.7812   -0.9509   -3.8215 C.ar      1 <0>        -0.1180
      8 C5          2.1716   -1.1186   -3.8185 C.ar      1 <0>        -0.0029
      9 C6          2.8878   -0.9400   -2.6284 C.ar      1 <0>        -0.1133
     10 C7          2.2207   -0.5956   -1.4724 C.ar      1 <0>        -0.0192
     11 C8          2.8740   -1.4800   -5.0555 C.2       1 <0>         0.0092
     12 C9          3.7772   -0.6950   -5.6946 C.2       1 <0>        -0.1685
     13 C10         4.2976   -1.3385   -6.8961 C.2       1 <0>         0.3973
     14 O3          5.1163   -0.8711   -7.6605 O.2       1 <0>        -0.4301
     15 C11         3.6345   -2.6924   -7.0184 C.3       1 <0>        -0.1761
     16 C12         2.7022   -2.7810   -5.7987 C.3       1 <0>        -0.0970
     17 C13         4.1847    0.6517   -5.2295 C.ar      1 <0>         0.0009
     18 C14         3.2551    1.6909   -5.1949 C.ar      1 <0>        -0.1009
     19 C15         3.6384    2.9432   -4.7609 C.ar      1 <0>        -0.0794
     20 C16         4.9438    3.1706   -4.3601 C.ar      1 <0>        -0.0722
     21 C17         5.8728    2.1418   -4.3920 C.ar      1 <0>         0.1159
     22 C18         5.4971    0.8826   -4.8197 C.ar      1 <0>        -0.1230
     23 F1          7.1455    2.3695   -4.0001 F         1 <0>        -0.1225
     24 Cl1         5.4193    4.7491   -3.8161 Cl        1 <0>        -0.0439
     25 H1          1.0001    2.1870    0.0043 H         1 <0>         0.1323
     26 H2         -0.5497    2.1708   -0.8711 H         1 <0>         0.1324
     27 H3         -0.5327    2.1613    0.9088 H         1 <0>         0.1351
     28 H4         -0.9427   -0.4826   -2.6555 H         1 <0>         0.1482
     29 H5          0.2212   -1.0871   -4.7348 H         1 <0>         0.1392
     30 H6          3.9602   -1.0674   -2.6174 H         1 <0>         0.1358
     31 H7          2.7720   -0.4532   -0.5547 H         1 <0>         0.1474
     32 H8          3.0619   -2.7528   -7.9439 H         1 <0>         0.1148
     33 H9          4.3809   -3.4858   -6.9801 H         1 <0>         0.1143
     34 H10         2.9899   -3.6182   -5.1628 H         1 <0>         0.1041
     35 H11         1.6685   -2.8939   -6.1254 H         1 <0>         0.1035
     36 H12         2.2364    1.5157   -5.5079 H         1 <0>         0.1388
     37 H13         2.9186    3.7479   -4.7341 H         1 <0>         0.1473
     38 H14         6.2197    0.0802   -4.8408 H         1 <0>         0.1454
@<TRIPOS>BOND
     1    1    2 1
     2    1   25 1
     3    1   26 1
     4    1   27 1
     5    2    3 2
     6    2    4 2
     7    2    5 1
     8    5   10 ar
     9    5    6 ar
    10    6    7 ar
    11    6   28 1
    12    7    8 ar
    13    7   29 1
    14    8    9 ar
    15    8   11 1
    16    9   10 ar
    17    9   30 1
    18   10   31 1
    19   11   16 1
    20   11   12 2
    21   12   13 1
    22   12   17 1
    23   13   14 2
    24   13   15 1
    25   15   16 1
    26   15   32 1
    27   15   33 1
    28   16   34 1
    29   16   35 1
    30   17   22 ar
    31   17   18 ar
    32   18   19 ar
    33   18   36 1
    34   19   20 ar
    35   19   37 1
    36   20   21 ar
    37   20   24 1
    38   21   22 ar
    39   21   23 1
    40   22   38 1
@<TRIPOS>MOLECULE
CHEMBL12594
   53    54     0     0     0
SMALL
USER_CHARGES

@<TRIPOS>ATOM
      1 C1         -0.7412    1.5212   -0.4908 C.3       1 <0>        -0.1492
      2 C2         -0.5416    0.0107   -0.3516 C.3       1 <0>        -0.0208
      3 C3          0.0380   -0.3020    1.0294 C.3       1 <0>        -0.1420
      4 C4         -1.8877   -0.6985   -0.5123 C.3       1 <0>        -0.1433
      5 C5          0.4100   -0.4705   -1.4165 C.ar      1 <0>        -0.0927
      6 C6          0.9495    0.4254   -2.3117 C.ar      1 <0>        -0.0960
      7 C7          1.8332   -0.0229   -3.3002 C.ar      1 <0>        -0.0785
      8 C8          2.1637   -1.3811   -3.3731 C.ar      1 <0>        -0.0879
      9 C9          1.6187   -2.2688   -2.4731 C.ar      1 <0>        -0.0923
     10 C10         0.7459   -1.8176   -1.4896 C.ar      1 <0>         0.1296
     11 O1          0.2155   -2.6961   -0.6012 O.3       1 <0>        -0.4847
     12 C11         1.9735   -3.7314   -2.5504 C.3       1 <0>        -0.0214
     13 C12         2.9484   -3.9592   -3.7074 C.3       1 <0>        -0.1483
     14 C13         2.6286   -4.1672   -1.2382 C.3       1 <0>        -0.1422
     15 C14         0.7039   -4.5526   -2.7840 C.3       1 <0>        -0.1425
     16 C15         2.4119    0.9294   -4.2590 C.2       1 <0>         0.0048
     17 C16         2.7446    2.1741   -3.8566 C.2       1 <0>        -0.1860
     18 C17         2.7273    2.6989   -2.4361 C.3       1 <0>        -0.0982
     19 C18         3.1946    4.1581   -2.5692 C.3       1 <0>         0.1053
     20 N1          3.4428    4.3793   -3.9953 N.am      1 <0>        -0.4834
     21 C19         3.1967    3.2724   -4.7065 C.2       1 <0>         0.5535
     22 O2          3.3300    3.1921   -5.9137 O.2       1 <0>        -0.5184
     23 O3          3.8905    5.6031   -4.5492 O.3       1 <0>        -0.1191
     24 C20         5.3127    5.7232   -4.6202 C.3       1 <0>        -0.0072
     25 H1          0.2178    2.0265   -0.3764 H         1 <0>         0.0583
     26 H2         -1.1541    1.7440   -1.4747 H         1 <0>         0.0585
     27 H3         -1.4294    1.8693    0.2794 H         1 <0>         0.0617
     28 H4         -0.6503    0.0460    1.7996 H         1 <0>         0.0550
     29 H5          0.1802   -1.3782    1.1286 H         1 <0>         0.0751
     30 H6          0.9970    0.2032    1.1438 H         1 <0>         0.0515
     31 H7         -2.3007   -0.4758   -1.4961 H         1 <0>         0.0549
     32 H8         -1.7456   -1.7747   -0.4131 H         1 <0>         0.0582
     33 H9         -2.5760   -0.3505    0.2580 H         1 <0>         0.0616
     34 H10         0.6911    1.4723   -2.2515 H         1 <0>         0.1384
     35 H11         2.8448   -1.7320   -4.1343 H         1 <0>         0.1350
     36 H12        -0.6191   -3.0908   -0.8888 H         1 <0>         0.3838
     37 H13         3.8529   -3.3742   -3.5410 H         1 <0>         0.0589
     38 H14         3.2051   -5.0171   -3.7633 H         1 <0>         0.0605
     39 H15         2.4817   -3.6488   -4.6422 H         1 <0>         0.0589
     40 H16         1.9341   -4.0049   -0.4139 H         1 <0>         0.0754
     41 H17         2.8853   -5.2251   -1.2941 H         1 <0>         0.0548
     42 H18         3.5331   -3.5822   -1.0718 H         1 <0>         0.0511
     43 H19         0.2372   -4.2421   -3.7188 H         1 <0>         0.0550
     44 H20         0.9606   -5.6105   -2.8398 H         1 <0>         0.0615
     45 H21         0.0094   -4.3903   -1.9597 H         1 <0>         0.0578
     46 H22         2.5708    0.6331   -5.2853 H         1 <0>         0.1416
     47 H23         1.7183    2.6571   -2.0260 H         1 <0>         0.1017
     48 H24         3.4180    2.1324   -1.8115 H         1 <0>         0.1012
     49 H25         2.4166    4.8345   -2.2150 H         1 <0>         0.0875
     50 H26         4.1121    4.3111   -2.0010 H         1 <0>         0.0799
     51 H27         5.7340    5.6508   -3.6176 H         1 <0>         0.0545
     52 H28         5.7143    4.9229   -5.2418 H         1 <0>         0.0565
     53 H29         5.5746    6.6876   -5.0556 H         1 <0>         0.1119
@<TRIPOS>BOND
     1    1    2 1
     2    1   25 1
     3    1   26 1
     4    1   27 1
     5    2    3 1
     6    2    4 1
     7    2    5 1
     8    3   28 1
     9    3   29 1
    10    3   30 1
    11    4   31 1
    12    4   32 1
    13    4   33 1
    14    5   10 ar
    15    5    6 ar
    16    6    7 ar
    17    6   34 1
    18    7    8 ar
    19    7   16 1
    20    8    9 ar
    21    8   35 1
    22    9   10 ar
    23    9   12 1
    24   10   11 1
    25   11   36 1
    26   12   13 1
    27   12   14 1
    28   12   15 1
    29   13   37 1
    30   13   38 1
    31   13   39 1
    32   14   40 1
    33   14   41 1
    34   14   42 1
    35   15   43 1
    36   15   44 1
    37   15   45 1
    38   16   17 2
    39   16   46 1
    40   17   21 1
    41   17   18 1
    42   18   19 1
    43   18   47 1
    44   18   48 1
    45   19   20 1
    46   19   49 1
    47   19   50 1
    48   20   21 am
    49   20   23 1
    50   21   22 2
    51   23   24 1
    52   24   51 1
    53   24   52 1
    54   24   53 1
@<TRIPOS>MOLECULE
CHEMBL174922
   61    64     0     0     0
SMALL
USER_CHARGES

@<TRIPOS>ATOM
      1 C1         -0.0158    1.1769   -1.0406 C.3       1 <0>        -0.1808
      2 C2          0.0345   -0.3321   -0.7932 C.3       1 <0>         0.2834
      3 C3         -1.3354   -0.8695   -0.7582 C.1       1 <0>        -0.1434
      4 C4         -2.4281   -1.2981   -0.7303 C.1       1 <0>        -0.0827
      5 C5         -3.7608   -1.8209   -0.6963 C.2       1 <0>         0.1807
      6 C6         -4.9424   -1.0770   -0.8688 C.2       1 <0>        -0.2161
      7 C7         -5.9953   -1.9381   -0.7667 C.2       1 <0>         0.1289
      8 N1         -5.4872   -3.1855   -0.5368 N.pl3     1 <0>        -0.3050
      9 N2         -4.0907   -3.0834   -0.5035 N.2       1 <0>        -0.2487
     10 C8         -6.2316   -4.3604   -0.3689 C.ar      1 <0>         0.0968
     11 C9         -7.3221   -4.6153   -1.1904 C.ar      1 <0>        -0.0723
     12 C10        -8.0553   -5.7732   -1.0243 C.ar      1 <0>        -0.1342
     13 C11        -7.7029   -6.6823   -0.0370 C.ar      1 <0>         0.1403
     14 C12        -6.6136   -6.4283    0.7840 C.ar      1 <0>        -0.1945
     15 C13        -5.8761   -5.2735    0.6154 C.ar      1 <0>        -0.0590
     16 O1         -8.4255   -7.8220    0.1262 O.3       1 <0>        -0.3110
     17 C14        -8.0066   -8.7131    1.1619 C.3       1 <0>         0.0234
     18 C15        -7.4274   -1.5853   -0.8829 C.ar      1 <0>        -0.0376
     19 C16        -8.3892   -2.3265   -0.1956 C.ar      1 <0>        -0.0890
     20 C17        -9.7231   -1.9931   -0.3077 C.ar      1 <0>        -0.1058
     21 C18       -10.1082   -0.9251   -1.1004 C.ar      1 <0>        -0.0225
     22 C19        -9.1582   -0.1863   -1.7851 C.ar      1 <0>        -0.1076
     23 C20        -7.8209   -0.5067   -1.6756 C.ar      1 <0>        -0.0745
     24 Cl1       -11.7886   -0.5113   -1.2368 Cl        1 <0>        -0.0606
     25 N3          0.6951   -0.5952    0.4877 N.am      1 <0>        -0.5164
     26 C21         0.6238    0.3123    1.4816 C.2       1 <0>         0.7138
     27 O2          1.6240    0.6110    2.1050 O.2       1 <0>        -0.5497
     28 N4         -0.5563    0.8886    1.7845 N.am      1 <0>        -0.6170
     29 C22        -0.7984    1.4388    3.1251 C.3       1 <0>         0.1251
     30 C23        -1.2562    2.8941    2.9855 C.3       1 <0>        -0.1358
     31 C24        -2.4676    2.9563    2.0524 C.3       1 <0>        -0.1195
     32 C25        -2.0736    2.4389    0.6670 C.3       1 <0>        -0.1400
     33 C26        -1.6229    0.9839    0.7785 C.3       1 <0>         0.0358
     34 O3          1.4086   -1.8029    0.6814 O.3       1 <0>        -0.3073
     35 H1          0.6353    1.4297   -1.8775 H         1 <0>         0.0881
     36 H2         -1.0386    1.4730   -1.2736 H         1 <0>         0.0981
     37 H3          0.3202    1.7030   -0.1471 H         1 <0>         0.0837
     38 H4          0.5932   -0.8135   -1.5958 H         1 <0>         0.1281
     39 H5         -5.0047   -0.0141   -1.0497 H         1 <0>         0.1627
     40 H6         -7.5967   -3.9077   -1.9586 H         1 <0>         0.1391
     41 H7         -8.9035   -5.9714   -1.6628 H         1 <0>         0.1449
     42 H8         -6.3399   -7.1363    1.5523 H         1 <0>         0.1406
     43 H9         -5.0253   -5.0783    1.2513 H         1 <0>         0.1371
     44 H10        -8.0489   -8.1994    2.1223 H         1 <0>         0.0590
     45 H11        -8.6667   -9.5802    1.1842 H         1 <0>         0.1050
     46 H12        -6.9846   -9.0393    0.9691 H         1 <0>         0.0592
     47 H13        -8.0899   -3.1599    0.4227 H         1 <0>         0.1357
     48 H14       -10.4684   -2.5663    0.2236 H         1 <0>         0.1399
     49 H15        -9.4643    0.6455   -2.4023 H         1 <0>         0.1421
     50 H16        -7.0803    0.0732   -2.2063 H         1 <0>         0.1418
     51 H17        -1.5743    0.8580    3.6239 H         1 <0>         0.0682
     52 H18         0.1219    1.3996    3.7079 H         1 <0>         0.0910
     53 H19        -1.5313    3.2845    3.9653 H         1 <0>         0.0769
     54 H20        -0.4454    3.4922    2.5696 H         1 <0>         0.0693
     55 H21        -3.2693    2.3382    2.4564 H         1 <0>         0.0641
     56 H22        -2.8105    3.9878    1.9707 H         1 <0>         0.0675
     57 H23        -2.9305    2.5054   -0.0034 H         1 <0>         0.0778
     58 H24        -1.2551    3.0413    0.2729 H         1 <0>         0.0696
     59 H25        -1.2464    0.6446   -0.1865 H         1 <0>         0.1531
     60 H26        -2.4675    0.3652    1.0817 H         1 <0>         0.0665
     61 H27         1.7442   -1.9215    1.5805 H         1 <0>         0.3934
@<TRIPOS>BOND
     1    1    2 1
     2    1   35 1
     3    1   36 1
     4    1   37 1
     5    2    3 1
     6    2   25 1
     7    2   38 1
     8    3    4 3
     9    4    5 1
    10    5    9 2
    11    5    6 1
    12    6    7 2
    13    6   39 1
    14    7    8 1
    15    7   18 1
    16    8    9 1
    17    8   10 1
    18   10   15 ar
    19   10   11 ar
    20   11   12 ar
    21   11   40 1
    22   12   13 ar
    23   12   41 1
    24   13   14 ar
    25   13   16 1
    26   14   15 ar
    27   14   42 1
    28   15   43 1
    29   16   17 1
    30   17   44 1
    31   17   45 1
    32   17   46 1
    33   18   23 ar
    34   18   19 ar
    35   19   20 ar
    36   19   47 1
    37   20   21 ar
    38   20   48 1
    39   21   22 ar
    40   21   24 1
    41   22   23 ar
    42   22   49 1
    43   23   50 1
    44   25   26 am
    45   25   34 1
    46   26   27 2
    47   26   28 am
    48   28   33 1
    49   28   29 1
    50   29   30 1
    51   29   51 1
    52   29   52 1
    53   30   31 1
    54   30   53 1
    55   30   54 1
    56   31   32 1
    57   31   55 1
    58   31   56 1
    59   32   33 1
    60   32   57 1
    61   32   58 1
    62   33   59 1
    63   33   60 1
    64   34   61 1
@<TRIPOS>MOLECULE
CHEMBL174922__1
   61    64     0     0     0
SMALL
USER_CHARGES

@<TRIPOS>ATOM
      1 C1         -0.9911    0.5759   -0.0471 C.3       1 <0>        -0.1824
      2 C2         -0.6513   -0.6729    0.7690 C.3       1 <0>         0.2797
      3 C3          0.3866   -0.3441    1.7598 C.1       1 <0>        -0.1357
      4 C4          1.2143   -0.0819    2.5499 C.1       1 <0>        -0.0870
      5 C5          2.2240    0.2379    3.5138 C.2       1 <0>         0.1803
      6 C6          2.8163    1.5006    3.6986 C.2       1 <0>        -0.2165
      7 C7          3.7263    1.3900    4.7086 C.2       1 <0>         0.1299
      8 N1          3.7043    0.0948    5.1435 N.pl3     1 <0>        -0.3048
      9 N2          2.7540   -0.5995    4.3841 N.2       1 <0>        -0.2470
     10 C8          4.4904   -0.4428    6.1711 C.ar      1 <0>         0.0956
     11 C9          4.6487    0.2543    7.3619 C.ar      1 <0>        -0.0706
     12 C10         5.4234   -0.2760    8.3740 C.ar      1 <0>        -0.1348
     13 C11         6.0438   -1.5052    8.2019 C.ar      1 <0>         0.1412
     14 C12         5.8860   -2.2021    7.0125 C.ar      1 <0>        -0.1950
     15 C13         5.1070   -1.6757    6.0017 C.ar      1 <0>        -0.0579
     16 O1          6.8068   -2.0265    9.1988 O.3       1 <0>        -0.3110
     17 C14         7.4159   -3.2957    8.9535 C.3       1 <0>         0.0233
     18 C15         4.5824    2.4750    5.2366 C.ar      1 <0>        -0.0370
     19 C16         5.8261    2.1771    5.7944 C.ar      1 <0>        -0.0889
     20 C17         6.6200    3.1929    6.2852 C.ar      1 <0>        -0.1055
     21 C18         6.1848    4.5059    6.2251 C.ar      1 <0>        -0.0225
     22 C19         4.9513    4.8074    5.6730 C.ar      1 <0>        -0.1074
     23 C20         4.1515    3.8005    5.1734 C.ar      1 <0>        -0.0745
     24 Cl1         7.1892    5.7791    6.8447 Cl        1 <0>        -0.0606
     25 N3         -1.8531   -1.1468    1.4598 N.am      1 <0>        -0.5065
     26 C21        -2.6079   -0.2836    2.1680 C.2       1 <0>         0.7156
     27 O2         -3.8196   -0.3829    2.1546 O.2       1 <0>        -0.5514
     28 N4         -2.0195    0.6897    2.8912 N.am      1 <0>        -0.6269
     29 C22        -0.8126    1.3651    2.3953 C.3       1 <0>         0.0255
     30 C23        -1.0549    2.8777    2.4049 C.3       1 <0>        -0.1412
     31 C24        -1.4870    3.3122    3.8072 C.3       1 <0>        -0.1177
     32 C25        -2.7954    2.6111    4.1798 C.3       1 <0>        -0.1360
     33 C26        -2.5763    1.0997    4.1876 C.3       1 <0>         0.1343
     34 O3         -2.2218   -2.5118    1.3833 O.3       1 <0>        -0.3101
     35 H1         -0.0981    1.1908   -0.1591 H         1 <0>         0.0971
     36 H2         -1.3538    0.2792   -1.0312 H         1 <0>         0.0889
     37 H3         -1.7635    1.1473    0.4677 H         1 <0>         0.0808
     38 H4         -0.2835   -1.4533    0.1029 H         1 <0>         0.1325
     39 H5          2.5906    2.3973    3.1406 H         1 <0>         0.1622
     40 H6          4.1661    1.2111    7.4958 H         1 <0>         0.1384
     41 H7          5.5468    0.2661    9.2999 H         1 <0>         0.1448
     42 H8          6.3692   -3.1588    6.8792 H         1 <0>         0.1408
     43 H9          4.9804   -2.2205    5.0778 H         1 <0>         0.1375
     44 H10         8.0750   -3.2213    8.0885 H         1 <0>         0.0592
     45 H11         7.9950   -3.5957    9.8268 H         1 <0>         0.1050
     46 H12         6.6422   -4.0383    8.7579 H         1 <0>         0.0593
     47 H13         6.1664    1.1532    5.8422 H         1 <0>         0.1356
     48 H14         7.5828    2.9634    6.7176 H         1 <0>         0.1398
     49 H15         4.6167    5.8334    5.6291 H         1 <0>         0.1419
     50 H16         3.1917    4.0373    4.7387 H         1 <0>         0.1410
     51 H17         0.0316    1.1262    3.0420 H         1 <0>         0.0910
     52 H18        -0.6012    1.0353    1.3781 H         1 <0>         0.1459
     53 H19        -0.1355    3.3952    2.1308 H         1 <0>         0.0756
     54 H20        -1.8392    3.1250    1.6895 H         1 <0>         0.0643
     55 H21        -0.7130    3.0423    4.5256 H         1 <0>         0.0639
     56 H22        -1.6363    4.3918    3.8230 H         1 <0>         0.0660
     57 H23        -3.1148    2.9388    5.1691 H         1 <0>         0.0759
     58 H24        -3.5633    2.8610    3.4478 H         1 <0>         0.0689
     59 H25        -3.5282    0.5948    4.3526 H         1 <0>         0.0851
     60 H26        -1.8791    0.8386    4.9837 H         1 <0>         0.0662
     61 H27        -3.0675   -2.7151    1.8058 H         1 <0>         0.3961
@<TRIPOS>BOND
     1    1    2 1
     2    1   35 1
     3    1   36 1
     4    1   37 1
     5    2    3 1
     6    2   25 1
     7    2   38 1
     8    3    4 3
     9    4    5 1
    10    5    9 2
    11    5    6 1
    12    6    7 2
    13    6   39 1
    14    7    8 1
    15    7   18 1
    16    8    9 1
    17    8   10 1
    18   10   15 ar
    19   10   11 ar
    20   11   12 ar
    21   11   40 1
    22   12   13 ar
    23   12   41 1
    24   13   14 ar
    25   13   16 1
    26   14   15 ar
    27   14   42 1
    28   15   43 1
    29   16   17 1
    30   17   44 1
    31   17   45 1
    32   17   46 1
    33   18   23 ar
    34   18   19 ar
    35   19   20 ar
    36   19   47 1
    37   20   21 ar
    38   20   48 1
    39   21   22 ar
    40   21   24 1
    41   22   23 ar
    42   22   49 1
    43   23   50 1
    44   25   26 am
    45   25   34 1
    46   26   27 2
    47   26   28 am
    48   28   33 1
    49   28   29 1
    50   29   30 1
    51   29   51 1
    52   29   52 1
    53   30   31 1
    54   30   53 1
    55   30   54 1
    56   31   32 1
    57   31   55 1
    58   31   56 1
    59   32   33 1
    60   32   57 1
    61   32   58 1
    62   33   59 1
    63   33   60 1
    64   34   61 1
@<TRIPOS>MOLECULE
CHEMBL268643
   30    32     0     0     0
SMALL
USER_CHARGES

@<TRIPOS>ATOM
      1 C1         -0.0167    1.3819    0.0096 C.ar      1 <0>        -0.0938
      2 C2          1.1651    2.0988    0.0022 C.ar      1 <0>        -0.0937
      3 C3          2.3854    1.4416   -0.0134 C.ar      1 <0>        -0.0432
      4 C4          2.4197    0.0564   -0.0211 C.ar      1 <0>        -0.1384
      5 C5          1.2146   -0.6746   -0.0131 C.ar      1 <0>        -0.1379
      6 C6          0.0021   -0.0041    0.0020 C.ar      1 <0>        -0.0425
      7 C7          1.6061   -2.0999   -0.0250 C.2       1 <0>         0.5808
      8 O1          0.8430   -3.0446   -0.0230 O.2       1 <0>        -0.4577
      9 N1          2.9491   -2.1754   -0.0390 N.am      1 <0>        -0.5625
     10 C8          3.5027   -0.9494   -0.0377 C.2       1 <0>         0.5780
     11 O2          4.6932   -0.7091   -0.0487 O.2       1 <0>        -0.4566
     12 C9          3.7088   -3.4280   -0.0532 C.3       1 <0>         0.1318
     13 C10         4.5944   -3.4997    1.1933 C.3       1 <0>        -0.1400
     14 C11         5.5735   -4.6679    1.0256 C.3       1 <0>        -0.1325
     15 C12         6.5489   -4.3311   -0.1030 C.3       1 <0>         0.1047
     16 N2          5.8239   -3.9079   -1.2945 N.am      1 <0>        -0.7087
     17 C13         4.5607   -3.4807   -1.2889 C.2       1 <0>         0.5148
     18 O3          4.0735   -3.1157   -2.3378 O.2       1 <0>        -0.5386
     19 H1         -0.9613    1.9053    0.0260 H         1 <0>         0.1448
     20 H2          1.1375    3.1784    0.0082 H         1 <0>         0.1446
     21 H3          3.3057    2.0069   -0.0199 H         1 <0>         0.1435
     22 H4         -0.9244   -0.5590    0.0082 H         1 <0>         0.1445
     23 H5          3.0176   -4.2707   -0.0537 H         1 <0>         0.1398
     24 H6          5.1498   -2.5683    1.3030 H         1 <0>         0.0899
     25 H7          3.9746   -3.6640    2.0748 H         1 <0>         0.0879
     26 H8          6.1256   -4.8184    1.9533 H         1 <0>         0.0978
     27 H9          5.0222   -5.5740    0.7742 H         1 <0>         0.0793
     28 H10         7.2106   -3.5276    0.2205 H         1 <0>         0.0733
     29 H11         7.1457   -5.2123   -0.3384 H         1 <0>         0.0849
     30 H12         6.2896   -3.9387   -2.1449 H         1 <0>         0.4058
@<TRIPOS>BOND
     1    1    6 ar
     2    1    2 ar
     3    1   19 1
     4    2    3 ar
     5    2   20 1
     6    3    4 ar
     7    3   21 1
     8    4   10 1
     9    4    5 ar
    10    5    6 ar
    11    5    7 1
    12    6   22 1
    13    7    8 2
    14    7    9 am
    15    9   10 am
    16    9   12 1
    17   10   11 2
    18   12   17 1
    19   12   13 1
    20   12   23 1
    21   13   14 1
    22   13   24 1
    23   13   25 1
    24   14   15 1
    25   14   26 1
    26   14   27 1
    27   15   16 1
    28   15   28 1
    29   15   29 1
    30   16   17 am
    31   16   30 1
    32   17   18 2
@<TRIPOS>MOLECULE
CHEMBL268643__1
   30    32     0     0     0
SMALL
USER_CHARGES

@<TRIPOS>ATOM
      1 C1         -0.0167    1.3819    0.0096 C.ar      1 <0>        -0.0938
      2 C2          1.1651    2.0988    0.0022 C.ar      1 <0>        -0.0937
      3 C3          2.3854    1.4416   -0.0134 C.ar      1 <0>        -0.0432
      4 C4          2.4197    0.0564   -0.0211 C.ar      1 <0>        -0.1384
      5 C5          1.2146   -0.6746   -0.0131 C.ar      1 <0>        -0.1379
      6 C6          0.0021   -0.0041    0.0020 C.ar      1 <0>        -0.0425
      7 C7          1.6061   -2.0999   -0.0250 C.2       1 <0>         0.5808
      8 O1          0.8430   -3.0446   -0.0230 O.2       1 <0>        -0.4578
      9 N1          2.9491   -2.1754   -0.0390 N.am      1 <0>        -0.5625
     10 C8          3.5027   -0.9494   -0.0377 C.2       1 <0>         0.5780
     11 O2          4.6932   -0.7091   -0.0487 O.2       1 <0>        -0.4566
     12 C9          3.7088   -3.4280   -0.0532 C.3       1 <0>         0.1318
     13 C10         4.5690   -3.4866   -1.3180 C.3       1 <0>        -0.1400
     14 C11         5.5512   -4.6564   -1.1824 C.3       1 <0>        -0.1325
     15 C12         6.5492   -4.3313   -0.0703 C.3       1 <0>         0.1047
     16 N2          5.8485   -3.9207    1.1400 N.am      1 <0>        -0.7087
     17 C13         4.5855   -3.4936    1.1644 C.2       1 <0>         0.5148
     18 O3          4.1199   -3.1388    2.2266 O.2       1 <0>        -0.5386
     19 H1         -0.9613    1.9053    0.0260 H         1 <0>         0.1448
     20 H2          1.1375    3.1784    0.0082 H         1 <0>         0.1446
     21 H3          3.3057    2.0069   -0.0199 H         1 <0>         0.1435
     22 H4         -0.9244   -0.5590    0.0082 H         1 <0>         0.1445
     23 H5          3.0176   -4.2708   -0.0476 H         1 <0>         0.1398
     24 H6          3.9316   -3.6417   -2.1884 H         1 <0>         0.0879
     25 H7          5.1222   -2.5540   -1.4291 H         1 <0>         0.0899
     26 H8          5.0050   -5.5651   -0.9294 H         1 <0>         0.0793
     27 H9          6.0844   -4.7971   -2.1226 H         1 <0>         0.0978
     28 H10         7.1505   -5.2149    0.1438 H         1 <0>         0.0849
     29 H11         7.2043   -3.5244   -0.3986 H         1 <0>         0.0733
     30 H12         6.3311   -3.9610    1.9805 H         1 <0>         0.4058
@<TRIPOS>BOND
     1    1    6 ar
     2    1    2 ar
     3    1   19 1
     4    2    3 ar
     5    2   20 1
     6    3    4 ar
     7    3   21 1
     8    4   10 1
     9    4    5 ar
    10    5    6 ar
    11    5    7 1
    12    6   22 1
    13    7    8 2
    14    7    9 am
    15    9   10 am
    16    9   12 1
    17   10   11 2
    18   12   17 1
    19   12   13 1
    20   12   23 1
    21   13   14 1
    22   13   24 1
    23   13   25 1
    24   14   15 1
    25   14   26 1
    26   14   27 1
    27   15   16 1
    28   15   28 1
    29   15   29 1
    30   16   17 am
    31   16   30 1
    32   17   18 2
@<TRIPOS>MOLECULE
CHEMBL80405
   42    45     0     0     0
SMALL
USER_CHARGES

@<TRIPOS>ATOM
      1 C1         -0.0167    1.3802    0.0096 C.ar      1 <0>        -0.1085
      2 C2          1.1707    2.0908    0.0021 C.ar      1 <0>        -0.1197
      3 C3          2.3792    1.4272   -0.0135 C.ar      1 <0>        -0.0899
      4 C4          2.4072    0.0298   -0.0213 C.ar      1 <0>        -0.0674
      5 C5          1.2034   -0.6761   -0.0131 C.ar      1 <0>        -0.0926
      6 C6          0.0021   -0.0041    0.0020 C.ar      1 <0>        -0.1006
      7 C7          1.5571   -2.1432   -0.0245 C.3       1 <0>        -0.0498
      8 C8          3.0666   -2.2004   -0.0398 C.2       1 <0>        -0.0919
      9 C9          3.5299   -0.9297   -0.0376 C.2       1 <0>        -0.0222
     10 C10         4.9609   -0.5535   -0.0498 C.ar      1 <0>        -0.0522
     11 C11         5.7800   -0.8803    1.0319 C.ar      1 <0>        -0.0711
     12 C12         7.1131   -0.5273    1.0155 C.ar      1 <0>        -0.1515
     13 C13         7.6395    0.1511   -0.0724 C.ar      1 <0>         0.1036
     14 C14         6.8304    0.4781   -1.1490 C.ar      1 <0>        -0.1509
     15 C15         5.4974    0.1243   -1.1455 C.ar      1 <0>        -0.0734
     16 F1          8.9459    0.4954   -0.0831 F         1 <0>        -0.1372
     17 C16         3.8868   -3.4210   -0.0536 C.ar      1 <0>         0.0338
     18 C17         4.6970   -3.7113   -1.1564 C.ar      1 <0>        -0.1207
     19 C18         5.4630   -4.8578   -1.1616 C.ar      1 <0>        -0.0141
     20 C19         5.4317   -5.7203   -0.0796 C.ar      1 <0>        -0.6750
     21 C20         4.6328   -5.4402    1.0154 C.ar      1 <0>        -0.0149
     22 C21         3.8653   -4.2949    1.0385 C.ar      1 <0>        -0.1271
     23 S1          6.4139   -7.1830   -0.0964 S.o2      1 <0>         2.7001
     24 O1          5.7942   -8.0986    0.7963 O.2       1 <0>        -0.9620
     25 O2          6.6548   -7.4949   -1.4616 O.2       1 <0>        -0.9620
     26 N1          7.8811   -6.7953    0.5665 N.pl3     1 <0>        -1.2497
     27 H1         -0.9597    1.9064    0.0260 H         1 <0>         0.1284
     28 H2          1.1507    3.1706    0.0081 H         1 <0>         0.1272
     29 H3          3.3031    1.9866   -0.0200 H         1 <0>         0.1224
     30 H4         -0.9258   -0.5567    0.0079 H         1 <0>         0.1260
     31 H5          1.1711   -2.6304    0.8709 H         1 <0>         0.1074
     32 H6          1.1534   -2.6207   -0.9173 H         1 <0>         0.1077
     33 H7          5.3706   -1.4084    1.8804 H         1 <0>         0.1320
     34 H8          7.7479   -0.7797    1.8520 H         1 <0>         0.1385
     35 H9          7.2455    1.0068   -1.9943 H         1 <0>         0.1392
     36 H10         4.8687    0.3755   -1.9869 H         1 <0>         0.1346
     37 H11         4.7222   -3.0395   -2.0016 H         1 <0>         0.1351
     38 H12         6.0887   -5.0836   -2.0124 H         1 <0>         0.1458
     39 H13         4.6139   -6.1182    1.8558 H         1 <0>         0.1466
     40 H14         3.2458   -4.0755    1.8955 H         1 <0>         0.1374
     41 H15         8.0509   -5.8908    0.8731 H         1 <0>         0.4168
     42 H16         8.5706   -7.4726    0.6482 H         1 <0>         0.4219
@<TRIPOS>BOND
     1    1    6 ar
     2    1    2 ar
     3    1   27 1
     4    2    3 ar
     5    2   28 1
     6    3    4 ar
     7    3   29 1
     8    4    9 1
     9    4    5 ar
    10    5    6 ar
    11    5    7 1
    12    6   30 1
    13    7    8 1
    14    7   31 1
    15    7   32 1
    16    8    9 2
    17    8   17 1
    18    9   10 1
    19   10   15 ar
    20   10   11 ar
    21   11   12 ar
    22   11   33 1
    23   12   13 ar
    24   12   34 1
    25   13   14 ar
    26   13   16 1
    27   14   15 ar
    28   14   35 1
    29   15   36 1
    30   17   22 ar
    31   17   18 ar
    32   18   19 ar
    33   18   37 1
    34   19   20 ar
    35   19   38 1
    36   20   21 ar
    37   20   23 1
    38   21   22 ar
    39   21   39 1
    40   22   40 1
    41   23   24 2
    42   23   25 2
    43   23   26 1
    44   26   41 1
    45   26   42 1
@<TRIPOS>MOLECULE
CHEMBL62101
   40    44     0     0     0
SMALL
USER_CHARGES

@<TRIPOS>ATOM
      1 C1         -0.0360    1.3920    0.0608 C.ar      1 <0>        -0.0928
      2 C2          1.1357    2.1261    0.0617 C.ar      1 <0>        -0.1079
      3 C3          2.3563    1.4663    0.0444 C.ar      1 <0>        -0.0638
      4 C4          2.3736    0.0924    0.0273 C.ar      1 <0>        -0.0997
      5 C5          1.2036   -0.6689    0.0265 C.ar      1 <0>         0.1303
      6 C6         -0.0124    0.0113    0.0431 C.ar      1 <0>        -0.1342
      7 N1          1.1721   -2.0805    0.0118 N.am      1 <0>        -0.4934
      8 C7          2.2606   -2.9284    0.0038 C.ar      1 <0>         0.1181
      9 C8          1.9224   -4.2675   -0.0018 C.ar      1 <0>        -0.0957
     10 C9          2.9122   -5.2258   -0.0070 C.ar      1 <0>        -0.0390
     11 C10         4.2488   -4.8588   -0.0090 C.ar      1 <0>        -0.1101
     12 C11         4.6027   -3.5135   -0.0058 C.ar      1 <0>        -0.0454
     13 C12         3.6064   -2.5724    0.0005 C.ar      1 <0>        -0.1018
     14 S1          3.9032   -0.8197    0.0061 S.3       1 <0>        -0.0186
     15 C13         0.4146   -4.2880   -0.0022 C.3       1 <0>        -0.0938
     16 C14         0.0235   -2.8272    0.0041 C.2       1 <0>         0.5382
     17 O1         -1.1092   -2.3925    0.0031 O.2       1 <0>        -0.4601
     18 C15        -0.1039   -4.9780    1.2332 C.2       1 <0>         0.5410
     19 O2          0.6738   -5.4202    2.0523 O.2       1 <0>        -0.4874
     20 N2         -1.4315   -5.1038    1.4278 N.am      1 <0>        -0.6604
     21 C16        -1.9132   -5.8261    2.5280 C.ar      1 <0>         0.1018
     22 C17        -1.2230   -5.8012    3.7318 C.ar      1 <0>        -0.0648
     23 C18        -1.6991   -6.5138    4.8153 C.ar      1 <0>        -0.1412
     24 C19        -2.8644   -7.2533    4.7020 C.ar      1 <0>         0.1212
     25 C20        -3.5555   -7.2810    3.5026 C.ar      1 <0>        -0.1718
     26 C21        -3.0861   -6.5642    2.4169 C.ar      1 <0>         0.1100
     27 F1         -3.7634   -6.5861    1.2481 F         1 <0>        -0.1255
     28 F2         -3.3275   -7.9491    5.7634 F         1 <0>        -0.1276
     29 H1         -0.9852    1.9068    0.0788 H         1 <0>         0.1363
     30 H2          1.1011    3.2054    0.0753 H         1 <0>         0.1407
     31 H3          3.2804    2.0253    0.0441 H         1 <0>         0.1454
     32 H4         -0.9393   -0.5430    0.0426 H         1 <0>         0.1620
     33 H5          2.6444   -6.2721   -0.0093 H         1 <0>         0.1400
     34 H6          5.0166   -5.6183   -0.0126 H         1 <0>         0.1468
     35 H7          5.6411   -3.2168   -0.0079 H         1 <0>         0.1492
     36 H8          0.0400   -4.7792   -0.9003 H         1 <0>         0.1662
     37 H9         -2.0538   -4.6944    0.8064 H         1 <0>         0.4227
     38 H10        -0.3138   -5.2252    3.8214 H         1 <0>         0.1590
     39 H11        -1.1615   -6.4945    5.7518 H         1 <0>         0.1499
     40 H12        -4.4640   -7.8586    3.4163 H         1 <0>         0.1560
@<TRIPOS>BOND
     1    1    6 ar
     2    1    2 ar
     3    1   29 1
     4    2    3 ar
     5    2   30 1
     6    3    4 ar
     7    3   31 1
     8    4   14 1
     9    4    5 ar
    10    5    6 ar
    11    5    7 1
    12    6   32 1
    13    7   16 am
    14    7    8 1
    15    8   13 ar
    16    8    9 ar
    17    9   10 ar
    18    9   15 1
    19   10   11 ar
    20   10   33 1
    21   11   12 ar
    22   11   34 1
    23   12   13 ar
    24   12   35 1
    25   13   14 1
    26   15   16 1
    27   15   18 1
    28   15   36 1
    29   16   17 2
    30   18   19 2
    31   18   20 am
    32   20   21 1
    33   20   37 1
    34   21   26 ar
    35   21   22 ar
    36   22   23 ar
    37   22   38 1
    38   23   24 ar
    39   23   39 1
    40   24   25 ar
    41   24   28 1
    42   25   26 ar
    43   25   40 1
    44   26   27 1
@<TRIPOS>MOLECULE
CHEMBL62101__1
   39    43     0     0     0
SMALL
USER_CHARGES

@<TRIPOS>ATOM
      1 C1         -0.0772    1.3843    0.0077 C.ar      1 <0>        -0.0993
      2 C2          1.0912    2.1234    0.0016 C.ar      1 <0>        -0.1356
      3 C3          2.3145    1.4693   -0.0104 C.ar      1 <0>        -0.0726
      4 C4          2.3393    0.0953   -0.0163 C.ar      1 <0>        -0.1118
      5 C5          1.1710   -0.6716   -0.0125 C.ar      1 <0>         0.1653
      6 C6         -0.0473    0.0037    0.0007 C.ar      1 <0>        -0.1396
      7 N1          1.1501   -2.0816   -0.0211 N.pl3     1 <0>        -0.4625
      8 C7          2.2400   -2.9067   -0.0271 C.ar      1 <0>         0.0454
      9 C8          1.8662   -4.2491   -0.0324 C.ar      1 <0>         0.0214
     10 C9          2.8635   -5.2229   -0.0367 C.ar      1 <0>        -0.1144
     11 C10         4.1954   -4.8579   -0.0364 C.ar      1 <0>        -0.1143
     12 C11         4.5678   -3.5124   -0.0330 C.ar      1 <0>        -0.1152
     13 C12         3.5854   -2.5605   -0.0293 C.ar      1 <0>        -0.0772
     14 S1          3.8764   -0.8067   -0.0288 S.3       1 <0>        -0.0647
     15 C13         0.3946   -4.2207   -0.0319 C.2       1 <0>        -0.4361
     16 C14         0.0271   -2.8833   -0.0250 C.2       1 <0>         0.4765
     17 O1         -1.2472   -2.4307   -0.0228 O.3       1 <0>        -0.6672
     18 C15        -0.5030   -5.3748   -0.0383 C.2       1 <0>         0.6496
     19 O2         -0.8765   -5.8615    1.0137 O.2       1 <0>        -0.5342
     20 N2         -0.9170   -5.9001   -1.2084 N.am      1 <0>        -0.6686
     21 C16        -1.7006   -7.0615   -1.2167 C.ar      1 <0>         0.1281
     22 C17        -2.6239   -7.2843   -0.2046 C.ar      1 <0>        -0.0716
     23 C18        -3.3957   -8.4300   -0.2143 C.ar      1 <0>        -0.1401
     24 C19        -3.2495   -9.3569   -1.2327 C.ar      1 <0>         0.0964
     25 C20        -2.3295   -9.1383   -2.2440 C.ar      1 <0>        -0.1720
     26 C21        -1.5585   -7.9900   -2.2418 C.ar      1 <0>         0.0901
     27 F1         -0.6647   -7.7735   -3.2315 F         1 <0>        -0.1300
     28 F2         -4.0054  -10.4766   -1.2391 F         1 <0>        -0.1378
     29 H1         -1.0287    1.8949    0.0226 H         1 <0>         0.1250
     30 H2          1.0518    3.2027    0.0057 H         1 <0>         0.1278
     31 H3          3.2358    2.0329   -0.0153 H         1 <0>         0.1334
     32 H4         -0.9718   -0.5545    0.0056 H         1 <0>         0.1752
     33 H5          2.5932   -6.2685   -0.0398 H         1 <0>         0.1154
     34 H6          4.9582   -5.6225   -0.0384 H         1 <0>         0.1215
     35 H7          5.6099   -3.2289   -0.0329 H         1 <0>         0.1267
     36 H8         -0.6724   -5.4741   -2.0448 H         1 <0>         0.4140
     37 H9         -2.7387   -6.5624    0.5904 H         1 <0>         0.1625
     38 H10        -4.1138   -8.6032    0.5736 H         1 <0>         0.1432
     39 H11        -2.2170   -9.8624   -3.0373 H         1 <0>         0.1474
@<TRIPOS>BOND
     1    1    6 ar
     2    1    2 ar
     3    1   29 1
     4    2    3 ar
     5    2   30 1
     6    3    4 ar
     7    3   31 1
     8    4   14 1
     9    4    5 ar
    10    5    6 ar
    11    5    7 1
    12    6   32 1
    13    7   16 1
    14    7    8 1
    15    8   13 ar
    16    8    9 ar
    17    9   10 ar
    18    9   15 1
    19   10   11 ar
    20   10   33 1
    21   11   12 ar
    22   11   34 1
    23   12   13 ar
    24   12   35 1
    25   13   14 1
    26   15   16 2
    27   15   18 1
    28   16   17 1
    29   18   19 2
    30   18   20 am
    31   20   21 1
    32   20   36 1
    33   21   26 ar
    34   21   22 ar
    35   22   23 ar
    36   22   37 1
    37   23   24 ar
    38   23   38 1
    39   24   25 ar
    40   24   28 1
    41   25   26 ar
    42   25   39 1
    43   26   27 1
@<TRIPOS>MOLECULE
CHEMBL62101__2
   40    44     0     0     0
SMALL
USER_CHARGES

@<TRIPOS>ATOM
      1 C1          0.0079    1.3605    0.0578 C.ar      1 <0>        -0.0926
      2 C2          1.1851    2.0855    0.0577 C.ar      1 <0>        -0.1081
      3 C3          2.4006    1.4165    0.0398 C.ar      1 <0>        -0.0638
      4 C4          2.4075    0.0425    0.0231 C.ar      1 <0>        -0.1001
      5 C5          1.2316   -0.7099    0.0233 C.ar      1 <0>         0.1306
      6 C6          0.0209   -0.0204    0.0405 C.ar      1 <0>        -0.1342
      7 N1          1.1894   -2.1212    0.0091 N.am      1 <0>        -0.4941
      8 C7          2.2713   -2.9774    0.0007 C.ar      1 <0>         0.1190
      9 C8          1.9229   -4.3139   -0.0043 C.ar      1 <0>        -0.0966
     10 C9          2.9053   -5.2797   -0.0099 C.ar      1 <0>        -0.0392
     11 C10         4.2447   -4.9229   -0.0128 C.ar      1 <0>        -0.1107
     12 C11         4.6088   -3.5804   -0.0103 C.ar      1 <0>        -0.0455
     13 C12         3.6198   -2.6318   -0.0036 C.ar      1 <0>        -0.1019
     14 S1          3.9299   -0.8813    0.0012 S.3       1 <0>        -0.0189
     15 C13         0.4149   -4.3228   -0.0037 C.3       1 <0>        -0.0934
     16 C14         0.0351   -2.8591    0.0024 C.2       1 <0>         0.5377
     17 O1         -1.0943   -2.4158    0.0021 O.2       1 <0>        -0.4569
     18 C15        -0.1089   -4.9984   -1.2447 C.2       1 <0>         0.5407
     19 O2          0.6652   -5.4396   -2.0677 O.2       1 <0>        -0.4876
     20 N2         -1.4375   -5.1125   -1.4402 N.am      1 <0>        -0.6595
     21 C16        -1.9258   -5.6561   -2.6361 C.ar      1 <0>         0.0999
     22 C17        -1.2290   -6.6738   -3.2724 C.ar      1 <0>        -0.0644
     23 C18        -1.7117   -7.2086   -4.4512 C.ar      1 <0>        -0.1424
     24 C19        -2.8902   -6.7305   -4.9991 C.ar      1 <0>         0.1211
     25 C20        -3.5880   -5.7150   -4.3674 C.ar      1 <0>        -0.1730
     26 C21        -3.1120   -5.1807   -3.1838 C.ar      1 <0>         0.1103
     27 F1         -3.7956   -4.1940   -2.5640 F         1 <0>        -0.1238
     28 F2         -3.3597   -7.2555   -6.1520 F         1 <0>        -0.1278
     29 H1         -0.9374    1.8825    0.0763 H         1 <0>         0.1363
     30 H2          1.1588    3.1651    0.0710 H         1 <0>         0.1407
     31 H3          3.3290    1.9683    0.0387 H         1 <0>         0.1453
     32 H4         -0.9103   -0.5676    0.0408 H         1 <0>         0.1621
     33 H5          2.6295   -6.3239   -0.0116 H         1 <0>         0.1401
     34 H6          5.0066   -5.6883   -0.0167 H         1 <0>         0.1467
     35 H7          5.6495   -3.2917   -0.0132 H         1 <0>         0.1491
     36 H8          0.0368   -4.8188    0.8902 H         1 <0>         0.1659
     37 H9         -2.0558   -4.8182   -0.7531 H         1 <0>         0.4221
     38 H10        -0.3096   -7.0474   -2.8464 H         1 <0>         0.1614
     39 H11        -1.1690   -8.0003   -4.9463 H         1 <0>         0.1502
     40 H12        -4.5067   -5.3434   -4.7965 H         1 <0>         0.1555
@<TRIPOS>BOND
     1    1    6 ar
     2    1    2 ar
     3    1   29 1
     4    2    3 ar
     5    2   30 1
     6    3    4 ar
     7    3   31 1
     8    4   14 1
     9    4    5 ar
    10    5    6 ar
    11    5    7 1
    12    6   32 1
    13    7   16 am
    14    7    8 1
    15    8   13 ar
    16    8    9 ar
    17    9   10 ar
    18    9   15 1
    19   10   11 ar
    20   10   33 1
    21   11   12 ar
    22   11   34 1
    23   12   13 ar
    24   12   35 1
    25   13   14 1
    26   15   16 1
    27   15   18 1
    28   15   36 1
    29   16   17 2
    30   18   19 2
    31   18   20 am
    32   20   21 1
    33   20   37 1
    34   21   26 ar
    35   21   22 ar
    36   22   23 ar
    37   22   38 1
    38   23   24 ar
    39   23   39 1
    40   24   25 ar
    41   24   28 1
    42   25   26 ar
    43   25   40 1
    44   26   27 1
@<TRIPOS>MOLECULE
CHEMBL276850
   23    25     0     0     0
SMALL
USER_CHARGES

@<TRIPOS>ATOM
      1 C1         -0.0167    1.3808    0.0096 C.ar      1 <0>        -0.1032
      2 C2          1.1692    2.0906    0.0021 C.ar      1 <0>        -0.1218
      3 C3          2.3833    1.4254   -0.0149 C.ar      1 <0>        -0.1029
      4 C4          2.4109    0.0429   -0.0247 C.ar      1 <0>         0.0631
      5 C5          1.2117   -0.6712   -0.0136 C.ar      1 <0>         0.1259
      6 C6          0.0021   -0.0041    0.0020 C.ar      1 <0>        -0.1392
      7 N1          1.2704   -2.0781   -0.0130 N.pl3     1 <0>        -0.6894
      8 C7          2.4531   -2.6508    0.4931 C.ar      1 <0>         0.1259
      9 C8          2.4669   -3.9351    1.0020 C.ar      1 <0>        -0.1393
     10 C9          3.6483   -4.4643    1.4943 C.ar      1 <0>        -0.1032
     11 C10         4.8064   -3.7103    1.4771 C.ar      1 <0>        -0.1218
     12 C11         4.7967   -2.4236    0.9661 C.ar      1 <0>        -0.1029
     13 C12         3.6221   -1.8888    0.4698 C.ar      1 <0>         0.0631
     14 O1          3.5940   -0.6306   -0.0500 O.3       1 <0>        -0.2466
     15 H1         -0.9597    1.9069    0.0260 H         1 <0>         0.1321
     16 H2          1.1486    3.1704    0.0099 H         1 <0>         0.1345
     17 H3          3.3069    1.9851   -0.0209 H         1 <0>         0.1380
     18 H4         -0.9241   -0.5595    0.0086 H         1 <0>         0.1315
     19 H5          0.5377   -2.6219   -0.3421 H         1 <0>         0.4201
     20 H6          1.5611   -4.5231    1.0163 H         1 <0>         0.1315
     21 H7          3.6645   -5.4680    1.8927 H         1 <0>         0.1321
     22 H8          5.7243   -4.1274    1.8642 H         1 <0>         0.1345
     23 H9          5.7045   -1.8386    0.9558 H         1 <0>         0.1380
@<TRIPOS>BOND
     1    1    6 ar
     2    1    2 ar
     3    1   15 1
     4    2    3 ar
     5    2   16 1
     6    3    4 ar
     7    3   17 1
     8    4   14 1
     9    4    5 ar
    10    5    6 ar
    11    5    7 1
    12    6   18 1
    13    7    8 1
    14    7   19 1
    15    8   13 ar
    16    8    9 ar
    17    9   10 ar
    18    9   20 1
    19   10   11 ar
    20   10   21 1
    21   11   12 ar
    22   11   22 1
    23   12   13 ar
    24   12   23 1
    25   13   14 1
@<TRIPOS>MOLECULE
CHEMBL292324
   35    39     0     0     0
SMALL
USER_CHARGES

@<TRIPOS>ATOM
      1 C1         -0.0167    1.3767    0.0096 C.ar      1 <0>        -0.0991
      2 C2          1.1577    2.1063    0.0023 C.ar      1 <0>        -0.1354
      3 C3          2.3757    1.4423   -0.0117 C.ar      1 <0>        -0.0726
      4 C4          2.3894    0.0683   -0.0185 C.ar      1 <0>        -0.1116
      5 C5          1.2149   -0.6891   -0.0138 C.ar      1 <0>         0.1652
      6 C6          0.0021   -0.0041    0.0020 C.ar      1 <0>        -0.1395
      7 N1          1.1827   -2.0990   -0.0251 N.pl3     1 <0>        -0.4625
      8 C7          2.2656   -2.9328   -0.0357 C.ar      1 <0>         0.0464
      9 C8          1.8808   -4.2722   -0.0438 C.ar      1 <0>         0.0210
     10 C9          2.8703   -5.2541   -0.0537 C.ar      1 <0>        -0.1148
     11 C10         4.2051   -4.8998   -0.0556 C.ar      1 <0>        -0.1141
     12 C11         4.5884   -3.5576   -0.0486 C.ar      1 <0>        -0.1149
     13 C12         3.6137   -2.5978   -0.0403 C.ar      1 <0>        -0.0770
     14 S1          3.9191   -0.8461   -0.0346 S.3       1 <0>        -0.0646
     15 C13         0.4097   -4.2318   -0.0397 C.2       1 <0>        -0.4331
     16 C14         0.0529   -2.8913   -0.0279 C.2       1 <0>         0.4779
     17 O1         -1.2175   -2.4283   -0.0208 O.3       1 <0>        -0.6647
     18 C15        -0.4970   -5.3784   -0.0471 C.2       1 <0>         0.6380
     19 O2         -0.8720   -5.8649    1.0044 O.2       1 <0>        -0.4834
     20 N2         -0.9180   -5.8972   -1.2176 N.am      1 <0>        -0.6165
     21 C16        -1.7795   -6.9867   -1.2246 C.2       1 <0>         0.3071
     22 N3         -2.2886   -7.6330   -0.1979 N.2       1 <0>        -0.5351
     23 C17        -3.1009   -8.6592   -0.3726 C.2       1 <0>         0.0732
     24 C18        -3.3826   -9.0115   -1.6508 C.2       1 <0>        -0.2713
     25 S2         -2.4316   -7.7959   -2.5484 S.3       1 <0>         0.0706
     26 H1         -0.9640    1.8950    0.0260 H         1 <0>         0.1250
     27 H2          1.1271    3.1859    0.0071 H         1 <0>         0.1278
     28 H3          3.3015    1.9984   -0.0175 H         1 <0>         0.1335
     29 H4         -0.9269   -0.5548    0.0085 H         1 <0>         0.1751
     30 H5          2.5915   -6.2975   -0.0595 H         1 <0>         0.1157
     31 H6          4.9616   -5.6706   -0.0624 H         1 <0>         0.1217
     32 H7          5.6328   -3.2826   -0.0496 H         1 <0>         0.1269
     33 H8         -0.6193   -5.5096   -2.0552 H         1 <0>         0.4234
     34 H9         -3.5219   -9.1944    0.4657 H         1 <0>         0.1696
     35 H10        -4.0121   -9.8060   -2.0236 H         1 <0>         0.1924
@<TRIPOS>BOND
     1    1    6 ar
     2    1    2 ar
     3    1   26 1
     4    2    3 ar
     5    2   27 1
     6    3    4 ar
     7    3   28 1
     8    4   14 1
     9    4    5 ar
    10    5    6 ar
    11    5    7 1
    12    6   29 1
    13    7   16 1
    14    7    8 1
    15    8   13 ar
    16    8    9 ar
    17    9   10 ar
    18    9   15 1
    19   10   11 ar
    20   10   30 1
    21   11   12 ar
    22   11   31 1
    23   12   13 ar
    24   12   32 1
    25   13   14 1
    26   15   16 2
    27   15   18 1
    28   16   17 1
    29   18   19 2
    30   18   20 am
    31   20   21 1
    32   20   33 1
    33   21   25 1
    34   21   22 2
    35   22   23 1
    36   23   24 2
    37   23   34 1
    38   24   25 1
    39   24   35 1
@<TRIPOS>MOLECULE
CHEMBL292324__1
   36    40     0     0     0
SMALL
USER_CHARGES

@<TRIPOS>ATOM
      1 C1         -0.0167    1.3769    0.0096 C.ar      1 <0>        -0.0930
      2 C2          1.1575    2.1068    0.0023 C.ar      1 <0>        -0.1081
      3 C3          2.3758    1.4427   -0.0129 C.ar      1 <0>        -0.0638
      4 C4          2.3883    0.0687   -0.0199 C.ar      1 <0>        -0.0996
      5 C5          1.2156   -0.6886   -0.0124 C.ar      1 <0>         0.1305
      6 C6          0.0021   -0.0041    0.0020 C.ar      1 <0>        -0.1342
      7 N1          1.1793   -2.1001   -0.0165 N.am      1 <0>        -0.4930
      8 C7          2.2648   -2.9519   -0.0208 C.ar      1 <0>         0.1185
      9 C8          1.9219   -4.2898   -0.0157 C.ar      1 <0>        -0.0965
     10 C9          2.9084   -5.2515   -0.0161 C.ar      1 <0>        -0.0383
     11 C10         4.2462   -4.8892   -0.0239 C.ar      1 <0>        -0.1097
     12 C11         4.6048   -3.5452   -0.0315 C.ar      1 <0>        -0.0449
     13 C12         3.6118   -2.6006   -0.0298 C.ar      1 <0>        -0.1020
     14 S1          3.9146   -0.8489   -0.0379 S.3       1 <0>        -0.0184
     15 C13         0.4140   -4.3050   -0.0125 C.3       1 <0>        -0.0907
     16 C14         0.0281   -2.8428   -0.0161 C.2       1 <0>         0.5390
     17 O1         -1.1031   -2.4042   -0.0176 O.2       1 <0>        -0.4615
     18 C15        -0.1039   -4.9841    1.2292 C.2       1 <0>         0.5314
     19 O2          0.6740   -5.4228    2.0497 O.2       1 <0>        -0.4376
     20 N2         -1.4315   -5.1038    1.4278 N.am      1 <0>        -0.6156
     21 C16        -1.9093   -5.7302    2.5730 C.2       1 <0>         0.2662
     22 N3         -1.2224   -6.2558    3.5642 N.2       1 <0>        -0.5210
     23 C17        -1.8299   -6.8203    4.5913 C.2       1 <0>         0.0616
     24 C18        -3.1855   -6.8318    4.5752 C.2       1 <0>        -0.2409
     25 S2         -3.5069   -5.9937    3.0318 S.3       1 <0>         0.1216
     26 H1         -0.9641    1.8951    0.0260 H         1 <0>         0.1363
     27 H2          1.1267    3.1863    0.0081 H         1 <0>         0.1407
     28 H3          3.3018    1.9984   -0.0195 H         1 <0>         0.1454
     29 H4         -0.9268   -0.5551    0.0078 H         1 <0>         0.1621
     30 H5          2.6369   -6.2968   -0.0100 H         1 <0>         0.1403
     31 H6          5.0114   -5.6514   -0.0237 H         1 <0>         0.1471
     32 H7          5.6442   -3.2521   -0.0382 H         1 <0>         0.1495
     33 H8          0.0357   -4.8016   -0.9060 H         1 <0>         0.1672
     34 H9         -2.0537   -4.7529    0.7715 H         1 <0>         0.4320
     35 H10        -1.2718   -7.2539    5.4080 H         1 <0>         0.1780
     36 H11        -3.8796   -7.2338    5.2984 H         1 <0>         0.2015
@<TRIPOS>BOND
     1    1    6 ar
     2    1    2 ar
     3    1   26 1
     4    2    3 ar
     5    2   27 1
     6    3    4 ar
     7    3   28 1
     8    4   14 1
     9    4    5 ar
    10    5    6 ar
    11    5    7 1
    12    6   29 1
    13    7   16 am
    14    7    8 1
    15    8   13 ar
    16    8    9 ar
    17    9   10 ar
    18    9   15 1
    19   10   11 ar
    20   10   30 1
    21   11   12 ar
    22   11   31 1
    23   12   13 ar
    24   12   32 1
    25   13   14 1
    26   15   16 1
    27   15   18 1
    28   15   33 1
    29   16   17 2
    30   18   19 2
    31   18   20 am
    32   20   21 1
    33   20   34 1
    34   21   25 1
    35   21   22 2
    36   22   23 1
    37   23   24 2
    38   23   35 1
    39   24   25 1
    40   24   36 1
@<TRIPOS>MOLECULE
CHEMBL292324__2
   36    40     0     0     0
SMALL
USER_CHARGES

@<TRIPOS>ATOM
      1 C1         -0.0167    1.3769    0.0096 C.ar      1 <0>        -0.0930
      2 C2          1.1575    2.1068    0.0023 C.ar      1 <0>        -0.1081
      3 C3          2.3758    1.4427   -0.0129 C.ar      1 <0>        -0.0638
      4 C4          2.3883    0.0687   -0.0199 C.ar      1 <0>        -0.0996
      5 C5          1.2156   -0.6886   -0.0124 C.ar      1 <0>         0.1305
      6 C6          0.0021   -0.0041    0.0020 C.ar      1 <0>        -0.1342
      7 N1          1.1793   -2.1001   -0.0165 N.am      1 <0>        -0.4930
      8 C7          2.2648   -2.9519   -0.0208 C.ar      1 <0>         0.1185
      9 C8          1.9219   -4.2898   -0.0157 C.ar      1 <0>        -0.0965
     10 C9          2.9084   -5.2515   -0.0161 C.ar      1 <0>        -0.0382
     11 C10         4.2462   -4.8892   -0.0239 C.ar      1 <0>        -0.1097
     12 C11         4.6048   -3.5452   -0.0315 C.ar      1 <0>        -0.0449
     13 C12         3.6118   -2.6006   -0.0298 C.ar      1 <0>        -0.1020
     14 S1          3.9146   -0.8489   -0.0379 S.3       1 <0>        -0.0184
     15 C13         0.4140   -4.3050   -0.0125 C.3       1 <0>        -0.0907
     16 C14         0.0281   -2.8428   -0.0161 C.2       1 <0>         0.5390
     17 O1         -1.1031   -2.4042   -0.0176 O.2       1 <0>        -0.4615
     18 C15        -0.1091   -4.9915   -1.2478 C.2       1 <0>         0.5314
     19 O2          0.6654   -5.4353   -2.0689 O.2       1 <0>        -0.4377
     20 N2         -1.4375   -5.1125   -1.4402 N.am      1 <0>        -0.6155
     21 C16        -1.9200   -5.7457   -2.5796 C.2       1 <0>         0.2664
     22 N3         -1.2372   -6.2875   -3.5648 N.2       1 <0>        -0.5211
     23 C17        -1.8490   -6.8565   -4.5869 C.2       1 <0>         0.0616
     24 C18        -3.2046   -6.8553   -4.5720 C.2       1 <0>        -0.2409
     25 S2         -3.5196   -6.0120   -3.0301 S.3       1 <0>         0.1213
     26 H1         -0.9641    1.8951    0.0260 H         1 <0>         0.1363
     27 H2          1.1267    3.1863    0.0081 H         1 <0>         0.1407
     28 H3          3.3018    1.9984   -0.0195 H         1 <0>         0.1454
     29 H4         -0.9268   -0.5551    0.0078 H         1 <0>         0.1621
     30 H5          2.6369   -6.2968   -0.0100 H         1 <0>         0.1403
     31 H6          5.0114   -5.6514   -0.0237 H         1 <0>         0.1471
     32 H7          5.6442   -3.2521   -0.0382 H         1 <0>         0.1495
     33 H8          0.0394   -4.7962    0.8856 H         1 <0>         0.1672
     34 H9         -2.0570   -4.7576   -0.7834 H         1 <0>         0.4320
     35 H10        -1.2942   -7.3027   -5.3991 H         1 <0>         0.1780
     36 H11        -3.9018   -7.2571   -5.2924 H         1 <0>         0.2015
@<TRIPOS>BOND
     1    1    6 ar
     2    1    2 ar
     3    1   26 1
     4    2    3 ar
     5    2   27 1
     6    3    4 ar
     7    3   28 1
     8    4   14 1
     9    4    5 ar
    10    5    6 ar
    11    5    7 1
    12    6   29 1
    13    7   16 am
    14    7    8 1
    15    8   13 ar
    16    8    9 ar
    17    9   10 ar
    18    9   15 1
    19   10   11 ar
    20   10   30 1
    21   11   12 ar
    22   11   31 1
    23   12   13 ar
    24   12   32 1
    25   13   14 1
    26   15   16 1
    27   15   18 1
    28   15   33 1
    29   16   17 2
    30   18   19 2
    31   18   20 am
    32   20   21 1
    33   20   34 1
    34   21   25 1
    35   21   22 2
    36   22   23 1
    37   23   24 2
    38   23   35 1
    39   24   25 1
    40   24   36 1
@<TRIPOS>MOLECULE
CHEMBL140804
   38    41     0     0     0
SMALL
USER_CHARGES

@<TRIPOS>ATOM
      1 C1         -0.0167    1.3795    0.0096 C.ar      1 <0>        -0.1169
      2 C2          1.1683    2.0938    0.0021 C.ar      1 <0>        -0.1161
      3 C3          2.3774    1.4298   -0.0130 C.ar      1 <0>        -0.1134
      4 C4          2.4036    0.0339   -0.0208 C.ar      1 <0>        -0.0203
      5 C5          1.2042   -0.6806   -0.0131 C.ar      1 <0>        -0.0987
      6 C6          0.0021   -0.0041    0.0020 C.ar      1 <0>        -0.1154
      7 C7          3.6950   -0.6840   -0.0375 C.2       1 <0>         0.0687
      8 C8          4.0088   -1.7416   -0.8258 C.2       1 <0>        -0.1371
      9 C9          5.3293   -2.1206   -0.5281 C.2       1 <0>        -0.1371
     10 C10         5.7914   -1.2858    0.4351 C.2       1 <0>         0.0686
     11 N1          4.7912   -0.3933    0.7392 N.pl3     1 <0>        -0.5495
     12 H1          4.8486    0.3206    1.3934 H         1 <0>         0.4151
     13 C11         7.1359   -1.3252    1.0469 C.ar      1 <0>        -0.0203
     14 C12         7.6919   -2.5441    1.4400 C.ar      1 <0>        -0.0989
     15 C13         8.9475   -2.5738    2.0105 C.ar      1 <0>        -0.1153
     16 C14         9.6556   -1.3992    2.1936 C.ar      1 <0>        -0.1170
     17 C15         9.1105   -0.1878    1.8063 C.ar      1 <0>        -0.1161
     18 C16         7.8583   -0.1444    1.2293 C.ar      1 <0>        -0.1135
     19 C17         6.0271   -3.2666   -1.2097 C.3       1 <0>        -0.0192
     20 C18         5.0190   -4.1003   -1.9460 C.2       1 <0>        -0.1504
     21 C19         3.8075   -3.7525   -2.2193 C.2       1 <0>        -0.1504
     22 C20         3.1658   -2.4452   -1.8549 C.3       1 <0>        -0.0191
     23 H2         -0.9605    1.9042    0.0260 H         1 <0>         0.1241
     24 H3          1.1466    3.1735    0.0078 H         1 <0>         0.1246
     25 H4          3.3016    1.9885   -0.0192 H         1 <0>         0.1189
     26 H5          1.2174   -1.7605   -0.0194 H         1 <0>         0.1279
     27 H6         -0.9265   -0.5555    0.0083 H         1 <0>         0.1269
     28 H7          7.1402   -3.4616    1.2979 H         1 <0>         0.1280
     29 H8          9.3787   -3.5159    2.3153 H         1 <0>         0.1269
     30 H9         10.6381   -1.4280    2.6411 H         1 <0>         0.1241
     31 H10         9.6685    0.7253    1.9520 H         1 <0>         0.1246
     32 H11         7.4358    0.8012    0.9233 H         1 <0>         0.1188
     33 H12         6.7611   -2.8771   -1.9151 H         1 <0>         0.0811
     34 H13         6.5309   -3.8808   -0.4634 H         1 <0>         0.0785
     35 H14         5.3366   -5.0782   -2.2766 H         1 <0>         0.1042
     36 H15         3.2007   -4.4651   -2.7582 H         1 <0>         0.1042
     37 H16         2.1723   -2.6296   -1.4462 H         1 <0>         0.0784
     38 H17         3.0825   -1.8211   -2.7446 H         1 <0>         0.0811
@<TRIPOS>BOND
     1    1    6 ar
     2    1    2 ar
     3    1   23 1
     4    2    3 ar
     5    2   24 1
     6    3    4 ar
     7    3   25 1
     8    4    5 ar
     9    4    7 1
    10    5    6 ar
    11    5   26 1
    12    6   27 1
    13    7   11 1
    14    7    8 2
    15    8   22 1
    16    8    9 1
    17    9   10 2
    18    9   19 1
    19   10   11 1
    20   10   13 1
    21   11   12 1
    22   13   18 ar
    23   13   14 ar
    24   14   15 ar
    25   14   28 1
    26   15   16 ar
    27   15   29 1
    28   16   17 ar
    29   16   30 1
    30   17   18 ar
    31   17   31 1
    32   18   32 1
    33   19   20 1
    34   19   33 1
    35   19   34 1
    36   20   21 2
    37   20   35 1
    38   21   22 1
    39   21   36 1
    40   22   37 1
    41   22   38 1
@<TRIPOS>MOLECULE
CHEMBL90988
   45    48     0     0     0
SMALL
USER_CHARGES

@<TRIPOS>ATOM
      1 C1         -0.0225    1.8097    0.0120 C.3       1 <0>        -0.6500
      2 S1          0.0021   -0.0041    0.0020 S.o2      1 <0>         2.4985
      3 O1          0.8352   -0.4880    1.0465 O.2       1 <0>        -0.9345
      4 O2         -1.3147   -0.5105   -0.1678 O.2       1 <0>        -0.9345
      5 C2          0.8454   -0.4373   -1.4831 C.ar      1 <0>        -0.6530
      6 C3          0.1296   -0.6119   -2.6552 C.ar      1 <0>        -0.0198
      7 C4          0.7812   -0.9508   -3.8215 C.ar      1 <0>        -0.1138
      8 C5          2.1716   -1.1181   -3.8186 C.ar      1 <0>         0.0260
      9 C6          2.8879   -0.9392   -2.6286 C.ar      1 <0>        -0.1147
     10 C7          2.2207   -0.5956   -1.4724 C.ar      1 <0>        -0.0201
     11 C8          2.8741   -1.4795   -5.0556 C.2       1 <0>        -0.0093
     12 C9          3.0975   -0.8799   -6.2654 C.2       1 <0>        -0.1508
     13 C10         3.8798   -1.9716   -6.8539 C.2       1 <0>         0.4139
     14 O3          4.4410   -2.2034   -7.9049 O.2       1 <0>        -0.3976
     15 C11         3.6640   -2.6655   -5.5371 C.3       1 <0>        -0.0857
     16 C12         2.8693   -3.9797   -5.6222 C.3       1 <0>        -0.1081
     17 C13         3.9410   -5.0816   -5.4227 C.3       1 <0>        -0.1250
     18 C14         4.8824   -4.4573   -4.3623 C.3       1 <0>        -0.1230
     19 C15         4.9420   -2.9619   -4.7417 C.3       1 <0>        -0.1101
     20 C16         2.6849    0.4379   -6.8032 C.ar      1 <0>        -0.0421
     21 C17         1.3341    0.7202   -7.0042 C.ar      1 <0>        -0.1004
     22 C18         0.9560    1.9492   -7.5048 C.ar      1 <0>        -0.1182
     23 C19         1.9140    2.9003   -7.8075 C.ar      1 <0>        -0.1122
     24 C20         3.2555    2.6261   -7.6103 C.ar      1 <0>        -0.1171
     25 C21         3.6455    1.4028   -7.1049 C.ar      1 <0>        -0.0975
     26 H1          1.0001    2.1870    0.0043 H         1 <0>         0.1322
     27 H2         -0.5497    2.1708   -0.8711 H         1 <0>         0.1322
     28 H3         -0.5327    2.1613    0.9088 H         1 <0>         0.1350
     29 H4         -0.9427   -0.4824   -2.6556 H         1 <0>         0.1489
     30 H5          0.2212   -1.0873   -4.7348 H         1 <0>         0.1370
     31 H6          3.9603   -1.0666   -2.6176 H         1 <0>         0.1386
     32 H7          2.7720   -0.4532   -0.5547 H         1 <0>         0.1491
     33 H8          2.1219   -4.0260   -4.8301 H         1 <0>         0.0824
     34 H9          2.3976   -4.0782   -6.5999 H         1 <0>         0.0738
     35 H10         3.4871   -5.9976   -5.0445 H         1 <0>         0.0752
     36 H11         4.4780   -5.2707   -6.3522 H         1 <0>         0.0730
     37 H12         4.4660   -4.5809   -3.3626 H         1 <0>         0.0715
     38 H13         5.8742   -4.9057   -4.4216 H         1 <0>         0.0732
     39 H14         5.8198   -2.7670   -5.3578 H         1 <0>         0.0766
     40 H15         4.9729   -2.3485   -3.8412 H         1 <0>         0.0769
     41 H16         0.5855   -0.0218   -6.7689 H         1 <0>         0.1218
     42 H17        -0.0898    2.1689   -7.6609 H         1 <0>         0.1268
     43 H18         1.6133    3.8606   -8.1998 H         1 <0>         0.1253
     44 H19         3.9989    3.3724   -7.8488 H         1 <0>         0.1269
     45 H20         4.6928    1.1913   -6.9474 H         1 <0>         0.1227
@<TRIPOS>BOND
     1    1    2 1
     2    1   26 1
     3    1   27 1
     4    1   28 1
     5    2    3 2
     6    2    4 2
     7    2    5 1
     8    5   10 ar
     9    5    6 ar
    10    6    7 ar
    11    6   29 1
    12    7    8 ar
    13    7   30 1
    14    8    9 ar
    15    8   11 1
    16    9   10 ar
    17    9   31 1
    18   10   32 1
    19   11   15 1
    20   11   12 2
    21   12   13 1
    22   12   20 1
    23   13   14 2
    24   13   15 1
    25   15   19 1
    26   15   16 1
    27   16   17 1
    28   16   33 1
    29   16   34 1
    30   17   18 1
    31   17   35 1
    32   17   36 1
    33   18   19 1
    34   18   37 1
    35   18   38 1
    36   19   39 1
    37   19   40 1
    38   20   25 ar
    39   20   21 ar
    40   21   22 ar
    41   21   41 1
    42   22   23 ar
    43   22   42 1
    44   23   24 ar
    45   23   43 1
    46   24   25 ar
    47   24   44 1
    48   25   45 1
@<TRIPOS>MOLECULE
CHEMBL37414
   35    37     0     0     0
SMALL
USER_CHARGES

@<TRIPOS>ATOM
      1 C1         -4.1390   -0.6583    4.4273 C.3       1 <0>        -0.0738
      2 C2         -3.4910   -1.8353    3.7449 C.2       1 <0>         0.0744
      3 C3         -4.2129   -2.9154    3.3600 C.2       1 <0>        -0.2774
      4 S1         -2.9344   -3.9314    2.6383 S.3       1 <0>         0.1279
      5 C4         -1.6365   -2.8920    2.8979 C.2       1 <0>         0.0438
      6 N1         -2.1951   -1.8573    3.4905 N.2       1 <0>        -0.5252
      7 S2          0.0574   -3.1285    2.4744 S.3       1 <0>         0.1669
      8 C5          0.1165   -4.7782    1.8581 C.ar      1 <0>        -0.2601
      9 C6          0.2143   -5.0050    0.5009 C.ar      1 <0>         0.0681
     10 C7          0.2614   -6.3210    0.0073 C.ar      1 <0>        -0.3114
     11 C8          0.2085   -7.3934    0.9016 C.ar      1 <0>         0.0304
     12 C9          0.1114   -7.1595    2.2577 C.ar      1 <0>        -0.2565
     13 C10         0.0699   -5.8589    2.7451 C.ar      1 <0>         0.3674
     14 N2         -0.0225   -5.6316    4.1145 N.2       1 <0>        -1.0612
     15 S3         -0.0775   -6.9112    5.1643 S.o2      1 <0>         2.5292
     16 O1         -1.2868   -7.5874    4.8487 O.2       1 <0>        -1.0176
     17 O2          1.1770   -7.5606    5.0105 O.2       1 <0>        -1.0189
     18 C11        -0.1938   -6.1587    6.8107 C.3       1 <0>        -0.6357
     19 C12         0.2747   -8.6934    0.1354 C.3       1 <0>        -0.0873
     20 C13         0.3757   -8.3130   -1.3480 C.3       1 <0>        -0.1684
     21 C14         0.3635   -6.8041   -1.3757 C.2       1 <0>         0.4165
     22 O3          0.4269   -6.1103   -2.3688 O.2       1 <0>        -0.4812
     23 H1         -4.4670    0.0612    3.6772 H         1 <0>         0.0689
     24 H2         -4.9990   -1.0005    5.0031 H         1 <0>         0.0687
     25 H3         -3.4198   -0.1844    5.0953 H         1 <0>         0.0704
     26 H4         -5.2706   -3.1088    3.4622 H         1 <0>         0.1849
     27 H5          0.2543   -4.1706   -0.1837 H         1 <0>         0.1256
     28 H6          0.0708   -7.9919    2.9446 H         1 <0>         0.1148
     29 H7         -1.0962   -5.5501    6.8691 H         1 <0>         0.1171
     30 H8         -0.2350   -6.9429    7.5666 H         1 <0>         0.1057
     31 H9          0.6798   -5.5308    6.9858 H         1 <0>         0.1198
     32 H10         1.1546   -9.2616    0.4372 H         1 <0>         0.0880
     33 H11        -0.6281   -9.2783    0.3115 H         1 <0>         0.0878
     34 H12         1.3060   -8.6909   -1.7722 H         1 <0>         0.0994
     35 H13        -0.4786   -8.7077   -1.8980 H         1 <0>         0.0992
@<TRIPOS>BOND
     1    1    2 1
     2    1   23 1
     3    1   24 1
     4    1   25 1
     5    2    6 1
     6    2    3 2
     7    3    4 1
     8    3   26 1
     9    4    5 1
    10    5    6 2
    11    5    7 1
    12    7    8 1
    13    8   13 ar
    14    8    9 ar
    15    9   10 ar
    16    9   27 1
    17   10   21 1
    18   10   11 ar
    19   11   12 ar
    20   11   19 1
    21   12   13 ar
    22   12   28 1
    23   13   14 1
    24   14   15 1
    25   15   16 2
    26   15   17 2
    27   15   18 1
    28   18   29 1
    29   18   30 1
    30   18   31 1
    31   19   20 1
    32   19   32 1
    33   19   33 1
    34   20   21 1
    35   20   34 1
    36   20   35 1
    37   21   22 2
@<TRIPOS>MOLECULE
CHEMBL383420
   69    73     0     0     0
SMALL
USER_CHARGES

@<TRIPOS>ATOM
      1 C1          0.1012    1.4856   -0.0015 C.3       1 <0>        -0.1041
      2 C2          0.2923   -0.0091    0.0150 C.2       1 <0>         0.1070
      3 C3          0.5272   -0.7681   -1.0670 C.2       1 <0>        -0.1627
      4 C4          0.6472   -2.1519   -0.6018 C.ar      1 <0>        -0.0851
      5 C5          0.8853   -3.3721   -1.2378 C.ar      1 <0>        -0.0659
      6 C6          0.9406   -4.5221   -0.5004 C.ar      1 <0>        -0.0544
      7 C7          0.7617   -4.4859    0.8768 C.ar      1 <0>        -0.0971
      8 C8          0.5258   -3.2927    1.5233 C.ar      1 <0>        -0.1121
      9 C9          0.4655   -2.1105    0.7923 C.ar      1 <0>         0.1088
     10 N1          0.2578   -0.7930    1.1360 N.pl3     1 <0>        -0.4703
     11 C10         0.0302   -0.3043    2.4982 C.3       1 <0>         0.2288
     12 C11         0.6007   -1.2882    3.4868 C.ar      1 <0>        -0.1015
     13 C12         1.9465   -1.6020    3.4514 C.ar      1 <0>        -0.0903
     14 C13         2.4698   -2.5046    4.3583 C.ar      1 <0>        -0.1157
     15 C14         1.6474   -3.0931    5.3008 C.ar      1 <0>        -0.1074
     16 C15         0.3018   -2.7786    5.3367 C.ar      1 <0>        -0.1198
     17 C16        -0.2207   -1.8728    4.4326 C.ar      1 <0>        -0.1040
     18 C17         0.7059    1.0315    2.6720 C.ar      1 <0>        -0.0981
     19 C18         2.0247    1.1938    2.2910 C.ar      1 <0>        -0.0968
     20 C19         2.6445    2.4191    2.4505 C.ar      1 <0>        -0.1157
     21 C20         1.9453    3.4822    2.9906 C.ar      1 <0>        -0.1079
     22 C21         0.6261    3.3202    3.3708 C.ar      1 <0>        -0.1165
     23 C22         0.0051    2.0961    3.2073 C.ar      1 <0>        -0.1045
     24 Cl1         1.2361   -6.0390   -1.2912 Cl        1 <0>        -0.0761
     25 C23         0.6447   -0.2876   -2.4905 C.3       1 <0>        -0.0330
     26 C24         2.1040    0.0589   -2.7930 C.3       1 <0>        -0.6027
     27 S1          2.2454    0.6373   -4.5065 S.o2      1 <0>         2.4949
     28 O1          1.9839   -0.4306   -5.4067 O.2       1 <0>        -0.9396
     29 O2          1.5888    1.8885   -4.6565 O.2       1 <0>        -0.9410
     30 C25         3.9564    0.9987   -4.7227 C.ar      1 <0>        -0.6765
     31 C26         4.4370    2.2633   -4.4383 C.ar      1 <0>        -0.0228
     32 C27         5.7792    2.5468   -4.6079 C.ar      1 <0>        -0.1420
     33 C28         6.6410    1.5657   -5.0614 C.ar      1 <0>        -0.0051
     34 C29         6.1606    0.3009   -5.3448 C.ar      1 <0>        -0.1414
     35 C30         4.8191    0.0161   -5.1712 C.ar      1 <0>        -0.0219
     36 C31         8.1042    1.8751   -5.2472 C.3       1 <0>        -0.0712
     37 C32         8.8573    1.5773   -3.9491 C.3       1 <0>        -0.1748
     38 C33        10.3204    1.8867   -4.1349 C.2       1 <0>         0.4903
     39 O3         10.7235    2.3064   -5.2062 O.co2     1 <0>        -0.6964
     40 O4         11.1011    1.7172   -3.2138 O.co2     1 <0>        -0.7035
     41 H1          1.0671    1.9767    0.1170 H         1 <0>         0.0823
     42 H2         -0.3443    1.7844   -0.9504 H         1 <0>         0.0844
     43 H3         -0.5573    1.7768    0.8168 H         1 <0>         0.0741
     44 H4          1.0249   -3.4073   -2.3081 H         1 <0>         0.1339
     45 H5          0.8078   -5.4025    1.4462 H         1 <0>         0.1318
     46 H6          0.3877   -3.2750    2.5943 H         1 <0>         0.1348
     47 H7         -1.0405   -0.1951    2.6708 H         1 <0>         0.0969
     48 H8          2.5890   -1.1423    2.7151 H         1 <0>         0.1235
     49 H9          3.5211   -2.7503    4.3302 H         1 <0>         0.1264
     50 H10         2.0561   -3.7988    6.0088 H         1 <0>         0.1254
     51 H11        -0.3408   -3.2386    6.0728 H         1 <0>         0.1264
     52 H12        -1.2713   -1.6243    4.4630 H         1 <0>         0.1245
     53 H13         2.5710    0.3632    1.8690 H         1 <0>         0.1218
     54 H14         3.6751    2.5457    2.1535 H         1 <0>         0.1271
     55 H15         2.4297    4.4393    3.1159 H         1 <0>         0.1254
     56 H16         0.0799    4.1507    3.7931 H         1 <0>         0.1256
     57 H17        -1.0266    1.9705    3.5009 H         1 <0>         0.1234
     58 H18         0.3098   -1.0731   -3.1680 H         1 <0>         0.0880
     59 H19         0.0250    0.5987   -2.6272 H         1 <0>         0.0869
     60 H20         2.4389    0.8444   -2.1156 H         1 <0>         0.1350
     61 H21         2.7237   -0.8273   -2.6564 H         1 <0>         0.1374
     62 H22         3.7637    3.0298   -4.0841 H         1 <0>         0.1370
     63 H23         6.1546    3.5350   -4.3864 H         1 <0>         0.1323
     64 H24         6.8338   -0.4656   -5.6994 H         1 <0>         0.1327
     65 H25         4.4444   -0.9731   -5.3891 H         1 <0>         0.1378
     66 H26         8.5068    1.2581   -6.0505 H         1 <0>         0.0779
     67 H27         8.2233    2.9279   -5.5030 H         1 <0>         0.0777
     68 H28         8.4546    2.1942   -3.1457 H         1 <0>         0.0585
     69 H29         8.7381    0.5244   -3.6932 H         1 <0>         0.0589
@<TRIPOS>BOND
     1    1    2 1
     2    1   41 1
     3    1   42 1
     4    1   43 1
     5    2   10 1
     6    2    3 2
     7    3    4 1
     8    3   25 1
     9    4    9 ar
    10    4    5 ar
    11    5    6 ar
    12    5   44 1
    13    6    7 ar
    14    6   24 1
    15    7    8 ar
    16    7   45 1
    17    8    9 ar
    18    8   46 1
    19    9   10 1
    20   10   11 1
    21   11   12 1
    22   11   18 1
    23   11   47 1
    24   12   17 ar
    25   12   13 ar
    26   13   14 ar
    27   13   48 1
    28   14   15 ar
    29   14   49 1
    30   15   16 ar
    31   15   50 1
    32   16   17 ar
    33   16   51 1
    34   17   52 1
    35   18   23 ar
    36   18   19 ar
    37   19   20 ar
    38   19   53 1
    39   20   21 ar
    40   20   54 1
    41   21   22 ar
    42   21   55 1
    43   22   23 ar
    44   22   56 1
    45   23   57 1
    46   25   26 1
    47   25   58 1
    48   25   59 1
    49   26   27 1
    50   26   60 1
    51   26   61 1
    52   27   28 2
    53   27   29 2
    54   27   30 1
    55   30   35 ar
    56   30   31 ar
    57   31   32 ar
    58   31   62 1
    59   32   33 ar
    60   32   63 1
    61   33   34 ar
    62   33   36 1
    63   34   35 ar
    64   34   64 1
    65   35   65 1
    66   36   37 1
    67   36   66 1
    68   36   67 1
    69   37   38 1
    70   37   68 1
    71   37   69 1
    72   38   39 2
    73   38   40 1
@<TRIPOS>MOLECULE
CHEMBL527
   35    37     0     0     0
SMALL
USER_CHARGES

@<TRIPOS>ATOM
      1 C1          0.6255    1.3542   -0.5605 C.3       1 <0>         0.0948
      2 N1          0.2322   -0.0033   -0.1748 N.pl3     1 <0>        -0.9105
      3 C2         -0.3114   -0.9006   -1.1143 C.2       1 <0>        -0.2343
      4 C3         -0.1422   -2.2374   -1.0200 C.2       1 <0>         0.2854
      5 C4          0.6176   -2.9021    0.0461 C.ar      1 <0>         0.0199
      6 C5          1.0272   -4.2316   -0.1017 C.ar      1 <0>        -0.0969
      7 C6          1.7413   -4.8456    0.9051 C.ar      1 <0>        -0.0820
      8 C7          2.0581   -4.1566    2.0629 C.ar      1 <0>        -0.1431
      9 C8          1.6568   -2.8394    2.2205 C.ar      1 <0>        -0.0313
     10 C9          0.9442   -2.2193    1.2239 C.ar      1 <0>        -0.6512
     11 S1          0.4182   -0.5450    1.3906 S.o2      1 <0>         2.6931
     12 O1         -0.8758   -0.5751    1.9770 O.2       1 <0>        -0.9592
     13 O2          1.5036    0.1779    1.9549 O.2       1 <0>        -0.9720
     14 O3         -0.7116   -3.0161   -1.9716 O.3       1 <0>        -0.6327
     15 C10        -1.0642   -0.3818   -2.1986 C.2       1 <0>         0.5997
     16 O4         -1.0388   -0.9409   -3.2802 O.2       1 <0>        -0.5137
     17 N2         -1.8077    0.7300   -2.0320 N.am      1 <0>        -0.6672
     18 C11        -2.5987    1.2016   -3.0765 C.ar      1 <0>         0.3700
     19 C12        -2.3158    0.8175   -4.3829 C.ar      1 <0>        -0.1925
     20 C13        -3.1100    1.2931   -5.4110 C.ar      1 <0>        -0.0620
     21 C14        -4.1644    2.1400   -5.0962 C.ar      1 <0>        -0.2191
     22 C15        -4.3876    2.4801   -3.7768 C.ar      1 <0>         0.1198
     23 N3         -3.6165    2.0071   -2.8164 N.ar      1 <0>        -0.5289
     24 H1          1.6941    1.3759   -0.7746 H         1 <0>         0.0565
     25 H2          0.0707    1.6544   -1.4494 H         1 <0>         0.0772
     26 H3          0.4044    2.0422    0.2555 H         1 <0>         0.0622
     27 H4          0.7841   -4.7759   -1.0023 H         1 <0>         0.1409
     28 H5          2.0564   -5.8721    0.7892 H         1 <0>         0.1269
     29 H6          2.6187   -4.6464    2.8453 H         1 <0>         0.1280
     30 H7          1.9037   -2.3024    3.1244 H         1 <0>         0.1311
     31 H8         -1.7917    1.2016   -1.1845 H         1 <0>         0.4091
     32 H9         -1.4871    0.1573   -4.5920 H         1 <0>         0.1755
     33 H10        -2.9142    1.0123   -6.4353 H         1 <0>         0.1295
     34 H11        -4.8030    2.5290   -5.8754 H         1 <0>         0.1260
     35 H12        -5.2065    3.1386   -3.5273 H         1 <0>         0.1509
@<TRIPOS>BOND
     1    1    2 1
     2    1   24 1
     3    1   25 1
     4    1   26 1
     5    2   11 1
     6    2    3 1
     7    3    4 2
     8    3   15 1
     9    4    5 1
    10    4   14 1
    11    5   10 ar
    12    5    6 ar
    13    6    7 ar
    14    6   27 1
    15    7    8 ar
    16    7   28 1
    17    8    9 ar
    18    8   29 1
    19    9   10 ar
    20    9   30 1
    21   10   11 1
    22   11   12 2
    23   11   13 2
    24   15   16 2
    25   15   17 am
    26   17   18 1
    27   17   31 1
    28   18   23 ar
    29   18   19 ar
    30   19   20 ar
    31   19   32 1
    32   20   21 ar
    33   20   33 1
    34   21   22 ar
    35   21   34 1
    36   22   23 ar
    37   22   35 1
@<TRIPOS>MOLECULE
CHEMBL527__1
   36    38     0     0     0
SMALL
USER_CHARGES

@<TRIPOS>ATOM
      1 C1          0.2045    1.3282    0.0896 C.3       1 <0>         0.0933
      2 N1          0.0704   -0.1307    0.0840 N.pl3     1 <0>        -0.9750
      3 C2         -1.2482   -0.7866   -0.0035 C.3       1 <0>         0.0921
      4 C3         -1.4354   -1.6443    1.2198 C.2       1 <0>         0.3816
      5 C4         -0.3887   -2.5627    1.6880 C.ar      1 <0>        -0.0952
      6 C5         -0.7360   -3.6099    2.5534 C.ar      1 <0>        -0.0694
      7 C6          0.2333   -4.4736    3.0134 C.ar      1 <0>        -0.0815
      8 C7          1.5525   -4.3129    2.6261 C.ar      1 <0>        -0.0927
      9 C8          1.9050   -3.2854    1.7685 C.ar      1 <0>        -0.0309
     10 C9          0.9439   -2.4182    1.2952 C.ar      1 <0>        -0.6112
     11 S1          1.3992   -1.1307    0.1692 S.o2      1 <0>         2.6641
     12 O1          2.4366   -0.3857    0.7923 O.2       1 <0>        -0.9415
     13 O2          1.5470   -1.7301   -1.1107 O.2       1 <0>        -0.8925
     14 O3         -2.4778   -1.5748    1.8353 O.2       1 <0>        -0.4044
     15 C10        -1.3059   -1.6467   -1.2397 C.2       1 <0>         0.4678
     16 O4         -0.4549   -1.5348   -2.0965 O.2       1 <0>        -0.3871
     17 N2         -2.3033   -2.5401   -1.3931 N.am      1 <0>        -0.6605
     18 C11        -2.2996   -3.4085   -2.4836 C.ar      1 <0>         0.3577
     19 C12        -3.3882   -4.2456   -2.7012 C.ar      1 <0>        -0.2051
     20 C13        -3.3715   -5.1026   -3.7874 C.ar      1 <0>        -0.0477
     21 C14        -2.2620   -5.0927   -4.6219 C.ar      1 <0>        -0.2013
     22 C15        -1.2161   -4.2347   -4.3457 C.ar      1 <0>         0.1346
     23 N3         -1.2622   -3.4246   -3.3054 N.ar      1 <0>        -0.4716
     24 H1          1.2590    1.5959    0.1552 H         1 <0>         0.0949
     25 H2         -0.2173    1.7353   -0.8293 H         1 <0>         0.0749
     26 H3         -0.3286    1.7387    0.9471 H         1 <0>         0.0715
     27 H4         -1.7636   -3.7390    2.8596 H         1 <0>         0.1460
     28 H5         -0.0371   -5.2796    3.6795 H         1 <0>         0.1439
     29 H6          2.3085   -4.9907    2.9943 H         1 <0>         0.1455
     30 H7          2.9356   -3.1626    1.4697 H         1 <0>         0.1441
     31 H8         -3.0236   -2.5789   -0.7447 H         1 <0>         0.4176
     32 H9         -4.2351   -4.2274   -2.0313 H         1 <0>         0.1364
     33 H10        -4.2026   -5.7644   -3.9814 H         1 <0>         0.1394
     34 H11        -2.2174   -5.7495   -5.4781 H         1 <0>         0.1376
     35 H12        -0.3508   -4.2238   -4.9919 H         1 <0>         0.1614
     36 H13        -2.0322   -0.0305   -0.0451 H         1 <0>         0.1634
@<TRIPOS>BOND
     1    1    2 1
     2    1   24 1
     3    1   25 1
     4    1   26 1
     5    2   11 1
     6    2    3 1
     7    3    4 1
     8    3   15 1
     9    3   36 1
    10    4    5 1
    11    4   14 2
    12    5   10 ar
    13    5    6 ar
    14    6    7 ar
    15    6   27 1
    16    7    8 ar
    17    7   28 1
    18    8    9 ar
    19    8   29 1
    20    9   10 ar
    21    9   30 1
    22   10   11 1
    23   11   12 2
    24   11   13 2
    25   15   16 2
    26   15   17 am
    27   17   18 1
    28   17   31 1
    29   18   23 ar
    30   18   19 ar
    31   19   20 ar
    32   19   32 1
    33   20   21 ar
    34   20   33 1
    35   21   22 ar
    36   21   34 1
    37   22   23 ar
    38   22   35 1
@<TRIPOS>MOLECULE
CHEMBL212777
   42    45     0     0     0
SMALL
USER_CHARGES

@<TRIPOS>ATOM
      1 C1         -0.0184    1.5028    0.0103 C.3       1 <0>        -0.1028
      2 C2          0.0021   -0.0041    0.0020 C.ar      1 <0>        -0.1183
      3 C3          0.0057   -0.6864   -1.2064 C.ar      1 <0>        -0.1103
      4 C4          0.0243   -2.0637   -1.2349 C.ar      1 <0>        -0.1089
      5 C5          0.0400   -2.7797   -0.0418 C.ar      1 <0>         0.1079
      6 C6          0.0367   -2.0826    1.1779 C.ar      1 <0>        -0.0761
      7 C7          0.0226   -0.6891    1.1850 C.ar      1 <0>        -0.0798
      8 C8          0.0560   -3.1107    2.2323 C.2       1 <0>        -0.2019
      9 C9          0.0692   -4.3142    1.6010 C.2       1 <0>         0.1432
     10 N1          0.0598   -4.1263    0.2522 N.pl3     1 <0>        -0.4281
     11 C10         0.0694   -5.2010   -0.7434 C.3       1 <0>         0.0275
     12 C11         1.4934   -5.5506   -1.0915 C.2       1 <0>         0.4826
     13 O1          2.4148   -4.9571   -0.5574 O.co2     1 <0>        -0.6699
     14 O2          1.7240   -6.4270   -1.9071 O.co2     1 <0>        -0.6896
     15 C12         0.0914   -5.6545    2.2896 C.3       1 <0>        -0.0976
     16 C13         0.0607   -2.8791    3.6911 C.ar      1 <0>         0.0965
     17 C14        -1.1283   -2.7879    4.4083 C.ar      1 <0>        -0.1762
     18 C15        -1.0881   -2.5697    5.7778 C.ar      1 <0>         0.1391
     19 N2          0.0459   -2.4449    6.4276 N.ar      1 <0>        -0.4864
     20 C16         1.2274   -2.5211    5.8049 C.ar      1 <0>         0.1408
     21 C17         1.2779   -2.7479    4.4086 C.ar      1 <0>        -0.0963
     22 C18         2.5177   -2.8325    3.7625 C.ar      1 <0>        -0.0527
     23 C19         3.6652   -2.7010    4.4856 C.ar      1 <0>        -0.1253
     24 C20         3.6206   -2.4832    5.8617 C.ar      1 <0>        -0.0074
     25 C21         2.4307   -2.3849    6.5183 C.ar      1 <0>        -0.0968
     26 Cl1         5.1032   -2.3206    6.7500 Cl        1 <0>        -0.0704
     27 H1          1.0042    1.8801    0.0026 H         1 <0>         0.0624
     28 H2         -0.5455    1.8639   -0.8728 H         1 <0>         0.0599
     29 H3         -0.5286    1.8543    0.9071 H         1 <0>         0.0587
     30 H4         -0.0065   -0.1324   -2.1334 H         1 <0>         0.1192
     31 H5          0.0262   -2.5860   -2.1802 H         1 <0>         0.1165
     32 H6          0.0242   -0.1522    2.1221 H         1 <0>         0.1115
     33 H7         -0.4308   -6.0791   -0.3349 H         1 <0>         0.0874
     34 H8         -0.4531   -4.8697   -1.6407 H         1 <0>         0.0864
     35 H9         -0.9308   -5.9918    2.4612 H         1 <0>         0.0757
     36 H10         0.6118   -6.3773    1.6613 H         1 <0>         0.0772
     37 H11         0.6092   -5.5639    3.2445 H         1 <0>         0.0784
     38 H12        -2.0771   -2.8861    3.9017 H         1 <0>         0.1381
     39 H13        -2.0165   -2.5002    6.3251 H         1 <0>         0.1585
     40 H14         2.5641   -3.0014    2.6968 H         1 <0>         0.1473
     41 H15         4.6208   -2.7667    3.9866 H         1 <0>         0.1375
     42 H16         2.4124   -2.2156    7.5848 H         1 <0>         0.1425
@<TRIPOS>BOND
     1    1    2 1
     2    1   27 1
     3    1   28 1
     4    1   29 1
     5    2    7 ar
     6    2    3 ar
     7    3    4 ar
     8    3   30 1
     9    4    5 ar
    10    4   31 1
    11    5   10 1
    12    5    6 ar
    13    6    7 ar
    14    6    8 1
    15    7   32 1
    16    8    9 2
    17    8   16 1
    18    9   10 1
    19    9   15 1
    20   10   11 1
    21   11   12 1
    22   11   33 1
    23   11   34 1
    24   12   13 2
    25   12   14 1
    26   15   35 1
    27   15   36 1
    28   15   37 1
    29   16   21 ar
    30   16   17 ar
    31   17   18 ar
    32   17   38 1
    33   18   19 ar
    34   18   39 1
    35   19   20 ar
    36   20   25 ar
    37   20   21 ar
    38   21   22 ar
    39   22   23 ar
    40   22   40 1
    41   23   24 ar
    42   23   41 1
    43   24   25 ar
    44   24   26 1
    45   25   42 1
@<TRIPOS>MOLECULE
CHEMBL203489
   34    35     0     0     0
SMALL
USER_CHARGES

@<TRIPOS>ATOM
      1 C1         -0.0225    1.8097    0.0120 C.3       1 <0>        -0.6491
      2 S1          0.0021   -0.0041    0.0020 S.o2      1 <0>         2.4991
      3 O1          0.8352   -0.4880    1.0465 O.2       1 <0>        -0.9325
      4 O2         -1.3147   -0.5105   -0.1678 O.2       1 <0>        -0.9324
      5 C2          0.8454   -0.4373   -1.4831 C.ar      1 <0>        -0.6456
      6 C3          0.1300   -0.6120   -2.6551 C.ar      1 <0>        -0.0224
      7 C4          0.7824   -0.9510   -3.8214 C.ar      1 <0>        -0.1053
      8 C5          2.1714   -1.1185   -3.8181 C.ar      1 <0>         0.0424
      9 C6          2.8872   -0.9401   -2.6294 C.ar      1 <0>        -0.1041
     10 C7          2.2205   -0.5956   -1.4728 C.ar      1 <0>        -0.0219
     11 C8          2.8567   -1.4711   -5.0250 C.1       1 <0>        -0.0244
     12 C9          3.4186   -1.7601   -6.0145 C.1       1 <0>        -0.2058
     13 C10         4.1039   -2.1127   -7.2214 C.2       1 <0>         0.5116
     14 O3          3.4779   -2.2675   -8.2538 O.2       1 <0>        -0.4064
     15 C11         5.5725   -2.2888   -7.2135 C.ar      1 <0>        -0.1102
     16 C12         6.2928   -2.1176   -6.0299 C.ar      1 <0>        -0.0661
     17 C13         7.6622   -2.2832   -6.0295 C.ar      1 <0>        -0.0646
     18 C14         8.3221   -2.6183   -7.1988 C.ar      1 <0>        -0.0179
     19 C15         7.6142   -2.7891   -8.3755 C.ar      1 <0>        -0.0635
     20 C16         6.2438   -2.6325   -8.3884 C.ar      1 <0>        -0.0553
     21 N1          9.7917   -2.7945   -7.1909 N.pl3     1 <0>         0.0259
     22 O4         10.4129   -2.6456   -6.1644 O.2       1 <0>        -0.1465
     23 O5         10.3709   -3.0873   -8.2109 O.3       1 <0>        -0.1456
     24 H1          1.0001    2.1870    0.0043 H         1 <0>         0.1328
     25 H2         -0.5497    2.1708   -0.8711 H         1 <0>         0.1328
     26 H3         -0.5327    2.1613    0.9088 H         1 <0>         0.1361
     27 H4         -0.9423   -0.4827   -2.6559 H         1 <0>         0.1531
     28 H5          0.2227   -1.0873   -4.7350 H         1 <0>         0.1428
     29 H6          3.9596   -1.0676   -2.6187 H         1 <0>         0.1428
     30 H7          2.7721   -0.4533   -0.5552 H         1 <0>         0.1532
     31 H8          5.7791   -1.8557   -5.1167 H         1 <0>         0.1547
     32 H9          8.2207   -2.1508   -5.1146 H         1 <0>         0.1638
     33 H10         8.1353   -3.0499   -9.2848 H         1 <0>         0.1652
     34 H11         5.6918   -2.7711   -9.3064 H         1 <0>         0.1633
@<TRIPOS>BOND
     1    1    2 1
     2    1   24 1
     3    1   25 1
     4    1   26 1
     5    2    3 2
     6    2    4 2
     7    2    5 1
     8    5   10 ar
     9    5    6 ar
    10    6    7 ar
    11    6   27 1
    12    7    8 ar
    13    7   28 1
    14    8    9 ar
    15    8   11 1
    16    9   10 ar
    17    9   29 1
    18   10   30 1
    19   11   12 3
    20   12   13 1
    21   13   14 2
    22   13   15 1
    23   15   20 ar
    24   15   16 ar
    25   16   17 ar
    26   16   31 1
    27   17   18 ar
    28   17   32 1
    29   18   19 ar
    30   18   21 1
    31   19   20 ar
    32   19   33 1
    33   20   34 1
    34   21   22 2
    35   21   23 1
@<TRIPOS>MOLECULE
CHEMBL348390
   42    45     0     0     0
SMALL
USER_CHARGES

@<TRIPOS>ATOM
      1 C1         -0.0167    1.3790    0.0096 C.ar      1 <0>        -0.1110
      2 C2          1.1687    2.0919    0.0021 C.ar      1 <0>        -0.1207
      3 C3          2.3774    1.4259   -0.0129 C.ar      1 <0>        -0.0912
      4 C4          2.4022    0.0327   -0.0206 C.ar      1 <0>        -0.0156
      5 C5          1.2051   -0.6804   -0.0130 C.ar      1 <0>        -0.0957
      6 C6          0.0021   -0.0041    0.0020 C.ar      1 <0>        -0.1204
      7 C7          3.6987   -0.6888   -0.0373 C.2       1 <0>         0.1239
      8 C8          3.9723   -1.9126    0.6022 C.2       1 <0>        -0.2076
      9 C9          5.2624   -2.2309    0.3558 C.2       1 <0>         0.0930
     10 N1          5.7916   -1.2545   -0.4240 N.pl3     1 <0>        -0.3224
     11 N2          4.7932   -0.2992   -0.6578 N.2       1 <0>        -0.2753
     12 C10         7.1039   -1.2112   -0.9129 C.ar      1 <0>         0.1553
     13 C11         8.1493   -1.7058   -0.1444 C.ar      1 <0>        -0.1352
     14 C12         9.4419   -1.6617   -0.6291 C.ar      1 <0>        -0.0976
     15 C13         9.6955   -1.1253   -1.8782 C.ar      1 <0>        -0.1217
     16 C14         8.6566   -0.6315   -2.6457 C.ar      1 <0>        -0.0987
     17 C15         7.3611   -0.6788   -2.1694 C.ar      1 <0>        -0.1121
     18 C16         5.9790   -3.4520    0.8737 C.3       1 <0>        -0.0683
     19 C17         5.1044   -4.6874    0.6425 C.3       1 <0>        -0.1130
     20 C18         4.1839   -4.8966    1.8416 C.3       1 <0>        -0.1210
     21 C19         3.7763   -3.5557    2.4468 C.3       1 <0>        -0.1247
     22 C20         3.0022   -2.7355    1.4122 C.3       1 <0>        -0.0418
     23 H1         -0.9603    1.9042    0.0260 H         1 <0>         0.1246
     24 H2          1.1482    3.1717    0.0077 H         1 <0>         0.1259
     25 H3          3.3023    1.9835   -0.0191 H         1 <0>         0.1249
     26 H4          1.2186   -1.7603   -0.0193 H         1 <0>         0.1281
     27 H5         -0.9264   -0.5558    0.0079 H         1 <0>         0.1272
     28 H6          7.9520   -2.1243    0.8315 H         1 <0>         0.1331
     29 H7         10.2554   -2.0463   -0.0319 H         1 <0>         0.1340
     30 H8         10.7071   -1.0916   -2.2549 H         1 <0>         0.1305
     31 H9          8.8580   -0.2126   -3.6206 H         1 <0>         0.1330
     32 H10         6.5495   -0.2974   -2.7713 H         1 <0>         0.1328
     33 H11         6.9243   -3.5711    0.3443 H         1 <0>         0.0815
     34 H12         6.1707   -3.3363    1.9405 H         1 <0>         0.0956
     35 H13         4.5035   -4.5436   -0.2554 H         1 <0>         0.0669
     36 H14         5.7404   -5.5636    0.5162 H         1 <0>         0.0723
     37 H15         3.2907   -5.4319    1.5197 H         1 <0>         0.0662
     38 H16         4.7043   -5.4876    2.5952 H         1 <0>         0.0639
     39 H17         3.1451   -3.7283    3.3185 H         1 <0>         0.0676
     40 H18         4.6689   -3.0081    2.7492 H         1 <0>         0.0677
     41 H19         2.3015   -2.0744    1.9222 H         1 <0>         0.0743
     42 H20         2.4544   -3.4072    0.7513 H         1 <0>         0.0717
@<TRIPOS>BOND
     1    1    6 ar
     2    1    2 ar
     3    1   23 1
     4    2    3 ar
     5    2   24 1
     6    3    4 ar
     7    3   25 1
     8    4    5 ar
     9    4    7 1
    10    5    6 ar
    11    5   26 1
    12    6   27 1
    13    7   11 2
    14    7    8 1
    15    8   22 1
    16    8    9 2
    17    9   10 1
    18    9   18 1
    19   10   11 1
    20   10   12 1
    21   12   17 ar
    22   12   13 ar
    23   13   14 ar
    24   13   28 1
    25   14   15 ar
    26   14   29 1
    27   15   16 ar
    28   15   30 1
    29   16   17 ar
    30   16   31 1
    31   17   32 1
    32   18   19 1
    33   18   33 1
    34   18   34 1
    35   19   20 1
    36   19   35 1
    37   19   36 1
    38   20   21 1
    39   20   37 1
    40   20   38 1
    41   21   22 1
    42   21   39 1
    43   21   40 1
    44   22   41 1
    45   22   42 1
@<TRIPOS>MOLECULE
CHEMBL122377
   45    46     0     0     0
SMALL
USER_CHARGES

@<TRIPOS>ATOM
      1 C1         -0.0187    1.5258    0.0104 C.3       1 <0>        -0.1508
      2 C2          0.0021   -0.0041    0.0020 C.3       1 <0>        -0.0205
      3 C3          0.7421   -0.5109    1.2415 C.3       1 <0>        -0.1433
      4 C4         -1.4333   -0.5336    0.0129 C.3       1 <0>        -0.1435
      5 C5          0.7074   -0.4901   -1.2379 C.ar      1 <0>        -0.0985
      6 C6          1.2147    0.4179   -2.1412 C.ar      1 <0>        -0.0614
      7 C7          1.8684   -0.0336   -3.2902 C.ar      1 <0>        -0.0599
      8 C8          2.0049   -1.4050   -3.5182 C.ar      1 <0>        -0.0439
      9 C9          1.4948   -2.3065   -2.6100 C.ar      1 <0>        -0.1005
     10 C10         0.8503   -1.8533   -1.4655 C.ar      1 <0>         0.1596
     11 O1          0.3542   -2.7449   -0.5698 O.3       1 <0>        -0.4818
     12 C11         1.6410   -3.7862   -2.8552 C.3       1 <0>        -0.0200
     13 C12         2.3876   -4.0137   -4.1711 C.3       1 <0>        -0.1500
     14 C13         2.4289   -4.4182   -1.7059 C.3       1 <0>        -0.1434
     15 C14         0.2550   -4.4290   -2.9374 C.3       1 <0>        -0.1433
     16 C15         2.4132    0.9361   -4.2614 C.2       1 <0>         0.3499
     17 N1          3.0417    0.6416   -5.3782 N.2       1 <0>        -0.5301
     18 C16         3.3960    1.7620   -6.0110 C.2       1 <0>         0.2395
     19 N2          3.0020    2.7894   -5.3130 N.2       1 <0>        -0.3194
     20 O2          2.3487    2.2756   -4.1620 O.3       1 <0>        -0.0928
     21 C17         4.1339    1.8284   -7.3233 C.3       1 <0>         0.0443
     22 Cl1         2.9466    1.8528   -8.6799 Cl        1 <0>        -0.1334
     23 H1          1.0039    1.9031    0.0027 H         1 <0>         0.0602
     24 H2         -0.5459    1.8868   -0.8726 H         1 <0>         0.0596
     25 H3         -0.5289    1.8773    0.9072 H         1 <0>         0.0637
     26 H4          0.2319   -0.1594    2.1383 H         1 <0>         0.0575
     27 H5          0.7568   -1.6008    1.2356 H         1 <0>         0.0758
     28 H6          1.7647   -0.1336    1.2338 H         1 <0>         0.0527
     29 H7         -1.9605   -0.1726   -0.8702 H         1 <0>         0.0561
     30 H8         -1.4185   -1.6235    0.0069 H         1 <0>         0.0585
     31 H9         -1.9435   -0.1821    0.9097 H         1 <0>         0.0641
     32 H10         1.1069    1.4774   -1.9616 H         1 <0>         0.1440
     33 H11         2.5093   -1.7581   -4.4055 H         1 <0>         0.1508
     34 H12        -0.5588   -3.0113   -0.7444 H         1 <0>         0.3898
     35 H13         3.3751   -3.5558   -4.1125 H         1 <0>         0.0607
     36 H14         2.4934   -5.0840   -4.3485 H         1 <0>         0.0629
     37 H15         1.8264   -3.5635   -4.9899 H         1 <0>         0.0604
     38 H16         1.8970   -4.2561   -0.7684 H         1 <0>         0.0756
     39 H17         2.5347   -5.4885   -1.8833 H         1 <0>         0.0575
     40 H18         3.4163   -3.9603   -1.6473 H         1 <0>         0.0526
     41 H19        -0.3063   -3.9787   -3.7562 H         1 <0>         0.0563
     42 H20         0.3608   -5.4992   -3.1148 H         1 <0>         0.0641
     43 H21        -0.2769   -4.2668   -1.9999 H         1 <0>         0.0578
     44 H22         4.7395    2.7341   -7.3542 H         1 <0>         0.1284
     45 H23         4.7798    0.9559   -7.4214 H         1 <0>         0.1341
@<TRIPOS>BOND
     1    1    2 1
     2    1   23 1
     3    1   24 1
     4    1   25 1
     5    2    3 1
     6    2    4 1
     7    2    5 1
     8    3   26 1
     9    3   27 1
    10    3   28 1
    11    4   29 1
    12    4   30 1
    13    4   31 1
    14    5   10 ar
    15    5    6 ar
    16    6    7 ar
    17    6   32 1
    18    7    8 ar
    19    7   16 1
    20    8    9 ar
    21    8   33 1
    22    9   10 ar
    23    9   12 1
    24   10   11 1
    25   11   34 1
    26   12   13 1
    27   12   14 1
    28   12   15 1
    29   13   35 1
    30   13   36 1
    31   13   37 1
    32   14   38 1
    33   14   39 1
    34   14   40 1
    35   15   41 1
    36   15   42 1
    37   15   43 1
    38   16   20 1
    39   16   17 2
    40   17   18 1
    41   18   19 2
    42   18   21 1
    43   19   20 1
    44   21   22 1
    45   21   44 1
    46   21   45 1
@<TRIPOS>MOLECULE
CHEMBL117911
   46    48     0     0     0
SMALL
USER_CHARGES

@<TRIPOS>ATOM
      1 C1          1.6860   -0.7628   -1.3938 C.3       1 <0>        -0.1351
      2 C2          1.6533   -2.0535   -0.5729 C.3       1 <0>        -0.0492
      3 C3          0.3534   -2.8476   -0.8427 C.3       1 <0>         0.0550
      4 O1         -0.5283   -2.3768    0.1903 O.3       1 <0>        -0.2954
      5 C4          0.2083   -1.9801    1.2648 C.ar      1 <0>         0.1279
      6 C5          1.5335   -1.7509    0.9086 C.ar      1 <0>        -0.1579
      7 C6          2.4525   -1.3301    1.8387 C.ar      1 <0>        -0.0323
      8 C7          2.0591   -1.1344    3.1674 C.ar      1 <0>        -0.1056
      9 C8          0.7302   -1.3709    3.5320 C.ar      1 <0>        -0.0650
     10 C9         -0.1816   -1.7888    2.5900 C.ar      1 <0>        -0.0926
     11 C10        -1.6117   -2.0408    2.9930 C.3       1 <0>        -0.0215
     12 C11        -1.7849   -1.7286    4.4807 C.3       1 <0>        -0.1462
     13 C12        -2.5388   -1.1423    2.1720 C.3       1 <0>        -0.1406
     14 C13        -1.9632   -3.5074    2.7354 C.3       1 <0>        -0.1399
     15 C14         3.0361   -0.6840    4.1726 C.2       1 <0>        -0.0949
     16 C15         3.8913    0.3146    3.8804 C.2       1 <0>        -0.0736
     17 C16         3.6400    1.1799    2.7243 C.2       1 <0>        -0.1348
     18 C17         4.4497    2.1595    2.1745 C.2       1 <0>        -0.1483
     19 C18         3.9893    2.8464    1.0750 C.2       1 <0>        -0.1610
     20 C19         2.7659    2.5454    0.5671 C.2       1 <0>        -0.2079
     21 S1          2.2133    1.2406    1.6525 S.3       1 <0>         0.1036
     22 C20         2.8880   -2.9110   -0.8578 C.3       1 <0>        -0.1367
     23 H1          2.5417   -0.1601   -1.0893 H         1 <0>         0.0636
     24 H2          1.7724   -1.0076   -2.4524 H         1 <0>         0.0627
     25 H3          0.7674   -0.2011   -1.2245 H         1 <0>         0.0594
     26 H4         -0.0461   -2.6106   -1.8288 H         1 <0>         0.1059
     27 H5          0.5277   -3.9189   -0.7428 H         1 <0>         0.0780
     28 H6          3.4764   -1.1509    1.5454 H         1 <0>         0.1224
     29 H7          0.4185   -1.2253    4.5558 H         1 <0>         0.1373
     30 H8         -1.5704   -0.6747    4.6582 H         1 <0>         0.0585
     31 H9         -2.8099   -1.9462    4.7808 H         1 <0>         0.0596
     32 H10        -1.0977   -2.3423    5.0632 H         1 <0>         0.0587
     33 H11        -2.4155   -1.3648    1.1121 H         1 <0>         0.0650
     34 H12        -3.5732   -1.3246    2.4635 H         1 <0>         0.0566
     35 H13        -2.2884   -0.0975    2.3555 H         1 <0>         0.0530
     36 H14        -1.3027   -4.1475    3.3203 H         1 <0>         0.0529
     37 H15        -2.9976   -3.6897    3.0269 H         1 <0>         0.0572
     38 H16        -1.8399   -3.7299    1.6755 H         1 <0>         0.0626
     39 H17         3.0670   -1.1544    5.1444 H         1 <0>         0.1348
     40 H18         4.7623    0.4777    4.4978 H         1 <0>         0.1398
     41 H19         5.4185    2.3790    2.5986 H         1 <0>         0.1320
     42 H20         4.5941    3.6172    0.6206 H         1 <0>         0.1279
     43 H21         2.2585    2.9817   -0.2806 H         1 <0>         0.1777
     44 H22         3.7861   -2.3567   -0.5855 H         1 <0>         0.0626
     45 H23         2.8359   -3.8288   -0.2720 H         1 <0>         0.0603
     46 H24         2.9215   -3.1586   -1.9188 H         1 <0>         0.0633
@<TRIPOS>BOND
     1    1    2 1
     2    1   23 1
     3    1   24 1
     4    1   25 1
     5    2    6 1
     6    2    3 1
     7    2   22 1
     8    3    4 1
     9    3   26 1
    10    3   27 1
    11    4    5 1
    12    5   10 ar
    13    5    6 ar
    14    6    7 ar
    15    7    8 ar
    16    7   28 1
    17    8    9 ar
    18    8   15 1
    19    9   10 ar
    20    9   29 1
    21   10   11 1
    22   11   12 1
    23   11   13 1
    24   11   14 1
    25   12   30 1
    26   12   31 1
    27   12   32 1
    28   13   33 1
    29   13   34 1
    30   13   35 1
    31   14   36 1
    32   14   37 1
    33   14   38 1
    34   15   16 2
    35   15   39 1
    36   16   17 1
    37   16   40 1
    38   17   21 1
    39   17   18 2
    40   18   19 1
    41   18   41 1
    42   19   20 2
    43   19   42 1
    44   20   21 1
    45   20   43 1
    46   22   44 1
    47   22   45 1
    48   22   46 1
@<TRIPOS>MOLECULE
CHEMBL12483
   43    44     0     0     0
SMALL
USER_CHARGES

@<TRIPOS>ATOM
      1 C1         -0.0187    1.5258    0.0104 C.3       1 <0>        -0.1483
      2 C2          0.0021   -0.0041    0.0020 C.3       1 <0>        -0.0187
      3 C3          0.7421   -0.5109    1.2415 C.3       1 <0>        -0.1397
      4 C4         -1.4333   -0.5336    0.0129 C.3       1 <0>        -0.1402
      5 C5          0.7074   -0.4901   -1.2379 C.ar      1 <0>        -0.0883
      6 C6          1.2150    0.4185   -2.1418 C.ar      1 <0>        -0.0834
      7 C7          1.8683   -0.0328   -3.2901 C.ar      1 <0>         0.0201
      8 C8          2.0047   -1.4034   -3.5180 C.ar      1 <0>        -0.1115
      9 C9          1.4943   -2.3054   -2.6092 C.ar      1 <0>        -0.0870
     10 C10         0.8502   -1.8525   -1.4654 C.ar      1 <0>         0.1070
     11 O1          0.3534   -2.7448   -0.5692 O.3       1 <0>        -0.4852
     12 C11         1.6410   -3.7851   -2.8542 C.3       1 <0>        -0.0191
     13 C12         2.3880   -4.0127   -4.1699 C.3       1 <0>        -0.1484
     14 C13         2.4288   -4.4168   -1.7046 C.3       1 <0>        -0.1399
     15 C14         0.2552   -4.4283   -2.9367 C.3       1 <0>        -0.1400
     16 C15         2.4137    0.9380   -4.2623 C.2       1 <0>         0.1469
     17 N1          3.0772    0.6407   -5.4303 N.pl3     1 <0>        -0.5976
     18 C16         3.3888    1.8457   -5.9939 C.2       1 <0>         0.3813
     19 N2          2.9292    2.7805   -5.1931 N.2       1 <0>        -0.3367
     20 N3          2.3513    2.2465   -4.1771 N.2       1 <0>        -0.2719
     21 S1          4.2471    2.0988   -7.5118 S.3       1 <0>        -0.8049
     22 H1          1.0039    1.9031    0.0027 H         1 <0>         0.0618
     23 H2         -0.5459    1.8868   -0.8726 H         1 <0>         0.0611
     24 H3         -0.5289    1.8773    0.9072 H         1 <0>         0.0559
     25 H4          0.2319   -0.1594    2.1383 H         1 <0>         0.0510
     26 H5          0.7568   -1.6008    1.2356 H         1 <0>         0.0735
     27 H6          1.7647   -0.1336    1.2338 H         1 <0>         0.0514
     28 H7         -1.9605   -0.1726   -0.8702 H         1 <0>         0.0545
     29 H8         -1.4185   -1.6235    0.0069 H         1 <0>         0.0568
     30 H9         -1.9435   -0.1821    0.9097 H         1 <0>         0.0576
     31 H10         1.1072    1.4779   -1.9621 H         1 <0>         0.1430
     32 H11         2.5092   -1.7564   -4.4053 H         1 <0>         0.1245
     33 H12        -0.5596   -3.0111   -0.7442 H         1 <0>         0.3763
     34 H13         3.3753   -3.5545   -4.1111 H         1 <0>         0.0591
     35 H14         2.4941   -5.0829   -4.3471 H         1 <0>         0.0578
     36 H15         1.8268   -3.5627   -4.9888 H         1 <0>         0.0584
     37 H16         1.8966   -4.2547   -0.7673 H         1 <0>         0.0751
     38 H17         2.5349   -5.4870   -1.8818 H         1 <0>         0.0510
     39 H18         3.4160   -3.9586   -1.6458 H         1 <0>         0.0510
     40 H19        -0.3060   -3.9783   -3.7556 H         1 <0>         0.0542
     41 H20         0.3613   -5.4985   -3.1139 H         1 <0>         0.0577
     42 H21        -0.2770   -4.2662   -1.9993 H         1 <0>         0.0578
     43 H22         3.2813   -0.2405   -5.7805 H         1 <0>         0.4162
@<TRIPOS>BOND
     1    1    2 1
     2    1   22 1
     3    1   23 1
     4    1   24 1
     5    2    3 1
     6    2    4 1
     7    2    5 1
     8    3   25 1
     9    3   26 1
    10    3   27 1
    11    4   28 1
    12    4   29 1
    13    4   30 1
    14    5   10 ar
    15    5    6 ar
    16    6    7 ar
    17    6   31 1
    18    7    8 ar
    19    7   16 1
    20    8    9 ar
    21    8   32 1
    22    9   10 ar
    23    9   12 1
    24   10   11 1
    25   11   33 1
    26   12   13 1
    27   12   14 1
    28   12   15 1
    29   13   34 1
    30   13   35 1
    31   13   36 1
    32   14   37 1
    33   14   38 1
    34   14   39 1
    35   15   40 1
    36   15   41 1
    37   15   42 1
    38   16   17 1
    39   16   20 2
    40   17   18 1
    41   17   43 1
    42   18   21 1
    43   18   19 2
    44   19   20 1
@<TRIPOS>MOLECULE
CHEMBL12483__1
   44    45     0     0     0
SMALL
USER_CHARGES

@<TRIPOS>ATOM
      1 C1         -0.0187    1.5258    0.0104 C.3       1 <0>        -0.1502
      2 C2          0.0021   -0.0041    0.0020 C.3       1 <0>        -0.0213
      3 C3          0.7421   -0.5109    1.2415 C.3       1 <0>        -0.1436
      4 C4         -1.4333   -0.5336    0.0129 C.3       1 <0>        -0.1437
      5 C5          0.7074   -0.4901   -1.2379 C.ar      1 <0>        -0.0910
      6 C6          1.2151    0.4184   -2.1419 C.ar      1 <0>        -0.0573
      7 C7          1.8681   -0.0326   -3.2898 C.ar      1 <0>        -0.0542
      8 C8          2.0047   -1.4026   -3.5179 C.ar      1 <0>        -0.0797
      9 C9          1.4945   -2.3051   -2.6094 C.ar      1 <0>        -0.0886
     10 C10         0.8502   -1.8525   -1.4655 C.ar      1 <0>         0.1516
     11 O1          0.3536   -2.7449   -0.5695 O.3       1 <0>        -0.4816
     12 C11         1.6410   -3.7847   -2.8551 C.3       1 <0>        -0.0216
     13 C12         2.3876   -4.0117   -4.1711 C.3       1 <0>        -0.1513
     14 C13         2.4290   -4.4169   -1.7060 C.3       1 <0>        -0.1439
     15 C14         0.2551   -4.4277   -2.9375 C.3       1 <0>        -0.1437
     16 C15         2.4138    0.9391   -4.2625 C.2       1 <0>         0.3333
     17 N1          3.0780    0.6237   -5.4314 N.pl3     1 <0>        -0.5943
     18 C16         3.4196    1.7732   -6.0468 C.2       1 <0>         0.4806
     19 N2          2.9798    2.7931   -5.2815 N.pl3     1 <0>        -0.4673
     20 H1          3.0820    3.7387   -5.4721 H         1 <0>         0.4720
     21 N3          2.3436    2.2372   -4.1632 N.2       1 <0>        -0.2660
     22 S1          4.2605    1.9134   -7.5315 S.2       1 <0>        -0.5609
     23 H2          1.0039    1.9031    0.0027 H         1 <0>         0.0605
     24 H3         -0.5459    1.8868   -0.8726 H         1 <0>         0.0597
     25 H4         -0.5289    1.8773    0.9072 H         1 <0>         0.0636
     26 H5          0.2319   -0.1594    2.1383 H         1 <0>         0.0580
     27 H6          0.7568   -1.6008    1.2356 H         1 <0>         0.0758
     28 H7          1.7647   -0.1336    1.2338 H         1 <0>         0.0528
     29 H8         -1.9605   -0.1726   -0.8702 H         1 <0>         0.0561
     30 H9         -1.4185   -1.6235    0.0069 H         1 <0>         0.0585
     31 H10        -1.9435   -0.1821    0.9097 H         1 <0>         0.0646
     32 H11         1.1072    1.4779   -1.9622 H         1 <0>         0.1473
     33 H12         2.5092   -1.7553   -4.4053 H         1 <0>         0.1335
     34 H13        -0.5594   -3.0112   -0.7446 H         1 <0>         0.3895
     35 H14         3.3750   -3.5536   -4.1123 H         1 <0>         0.0594
     36 H15         2.4936   -5.0819   -4.3488 H         1 <0>         0.0654
     37 H16         1.8263   -3.5613   -4.9897 H         1 <0>         0.0587
     38 H17         1.8970   -4.2552   -0.7685 H         1 <0>         0.0766
     39 H18         2.5349   -5.4871   -1.8837 H         1 <0>         0.0582
     40 H19         3.4163   -3.9588   -1.6473 H         1 <0>         0.0528
     41 H20        -0.3063   -3.9773   -3.7561 H         1 <0>         0.0561
     42 H21         0.3611   -5.4978   -3.1152 H         1 <0>         0.0648
     43 H22        -0.2768   -4.2660   -2.0000 H         1 <0>         0.0588
     44 H23         3.2663   -0.2714   -5.7542 H         1 <0>         0.4522
@<TRIPOS>BOND
     1    1    2 1
     2    1   23 1
     3    1   24 1
     4    1   25 1
     5    2    3 1
     6    2    4 1
     7    2    5 1
     8    3   26 1
     9    3   27 1
    10    3   28 1
    11    4   29 1
    12    4   30 1
    13    4   31 1
    14    5   10 ar
    15    5    6 ar
    16    6    7 ar
    17    6   32 1
    18    7    8 ar
    19    7   16 1
    20    8    9 ar
    21    8   33 1
    22    9   10 ar
    23    9   12 1
    24   10   11 1
    25   11   34 1
    26   12   13 1
    27   12   14 1
    28   12   15 1
    29   13   35 1
    30   13   36 1
    31   13   37 1
    32   14   38 1
    33   14   39 1
    34   14   40 1
    35   15   41 1
    36   15   42 1
    37   15   43 1
    38   16   17 1
    39   16   21 2
    40   17   18 1
    41   17   44 1
    42   18   22 2
    43   18   19 1
    44   19   21 1
    45   19   20 1
@<TRIPOS>MOLECULE
CHEMBL62772
   45    49     0     0     0
SMALL
USER_CHARGES

@<TRIPOS>ATOM
      1 C1         -0.0086    1.3853   -0.0381 C.ar      1 <0>        -0.1242
      2 C2          1.1789    2.0959   -0.0411 C.ar      1 <0>        -0.0987
      3 C3          2.3690    1.4025    0.0106 C.ar      1 <0>        -0.1232
      4 C4          2.3721    0.0087    0.0141 C.ar      1 <0>         0.1460
      5 C5          1.2170   -0.7020   -0.0725 C.ar      1 <0>        -0.0929
      6 C6          0.0066    0.0104   -0.0402 C.ar      1 <0>        -0.1079
      7 C7          1.0433   -2.1652   -0.3470 C.3       1 <0>        -0.0748
      8 C8          1.9789   -2.7359   -1.3816 C.3       1 <0>        -0.0725
      9 C9          3.4108   -2.7950   -0.9461 C.ar      1 <0>        -0.0956
     10 C10         4.1521   -3.9088   -1.3454 C.ar      1 <0>        -0.0829
     11 C11         5.4576   -4.1018   -0.9537 C.ar      1 <0>        -0.1348
     12 C12         6.1035   -3.1814   -0.1351 C.ar      1 <0>        -0.0341
     13 C13         5.3790   -2.0699    0.2376 C.ar      1 <0>        -0.1257
     14 C14         4.0504   -1.8606   -0.1629 C.ar      1 <0>         0.1557
     15 N1          3.6187   -0.6114    0.2465 N.am      1 <0>        -0.4932
     16 C15         4.5664    0.0239    0.9887 C.2       1 <0>         0.5311
     17 O1          4.4630    1.1213    1.4947 O.2       1 <0>        -0.4696
     18 C16         5.7713   -0.8863    1.0684 C.3       1 <0>        -0.1029
     19 C17         6.9859   -0.2100    0.4865 C.2       1 <0>         0.5383
     20 O2          7.4985   -0.6472   -0.5221 O.2       1 <0>        -0.4911
     21 N2          7.5023    0.8806    1.0866 N.am      1 <0>        -0.6649
     22 C18         8.6853    1.4515    0.6029 C.ar      1 <0>         0.1476
     23 C19         9.5990    2.0116    1.4859 C.ar      1 <0>        -0.1285
     24 C20        10.7654    2.5742    1.0060 C.ar      1 <0>        -0.0904
     25 C21        11.0240    2.5802   -0.3535 C.ar      1 <0>        -0.0476
     26 C22        10.1150    2.0226   -1.2355 C.ar      1 <0>        -0.0904
     27 C23         8.9498    1.4536   -0.7603 C.ar      1 <0>        -0.1081
     28 Cl1        12.4908    3.2887   -0.9534 Cl        1 <0>        -0.0673
     29 H1         -0.9510    1.9127   -0.0295 H         1 <0>         0.1280
     30 H2          1.1733    3.1751   -0.0836 H         1 <0>         0.1331
     31 H3          3.3039    1.9419    0.0483 H         1 <0>         0.1396
     32 H4         -0.9276   -0.5310   -0.0164 H         1 <0>         0.1302
     33 H5          1.1897   -2.7094    0.5860 H         1 <0>         0.0746
     34 H6          0.0191   -2.3329   -0.6804 H         1 <0>         0.0876
     35 H7          1.6494   -3.7453   -1.6280 H         1 <0>         0.0891
     36 H8          1.9152   -2.1245   -2.2817 H         1 <0>         0.0771
     37 H9          3.6850   -4.6445   -1.9833 H         1 <0>         0.1309
     38 H10         5.9883   -4.9815   -1.2869 H         1 <0>         0.1319
     39 H11         7.1217   -3.3305    0.1925 H         1 <0>         0.1401
     40 H12         5.9563   -1.1867    2.0997 H         1 <0>         0.1583
     41 H13         7.0543    1.2699    1.8538 H         1 <0>         0.4198
     42 H14         9.3976    2.0075    2.5469 H         1 <0>         0.1375
     43 H15        11.4763    3.0103    1.6923 H         1 <0>         0.1396
     44 H16        10.3190    2.0289   -2.2961 H         1 <0>         0.1382
     45 H17         8.2428    1.0146   -1.4487 H         1 <0>         0.1470
@<TRIPOS>BOND
     1    1    6 ar
     2    1    2 ar
     3    1   29 1
     4    2    3 ar
     5    2   30 1
     6    3    4 ar
     7    3   31 1
     8    4   15 1
     9    4    5 ar
    10    5    6 ar
    11    5    7 1
    12    6   32 1
    13    7    8 1
    14    7   33 1
    15    7   34 1
    16    8    9 1
    17    8   35 1
    18    8   36 1
    19    9   14 ar
    20    9   10 ar
    21   10   11 ar
    22   10   37 1
    23   11   12 ar
    24   11   38 1
    25   12   13 ar
    26   12   39 1
    27   13   18 1
    28   13   14 ar
    29   14   15 1
    30   15   16 am
    31   16   17 2
    32   16   18 1
    33   18   19 1
    34   18   40 1
    35   19   20 2
    36   19   21 am
    37   21   22 1
    38   21   41 1
    39   22   27 ar
    40   22   23 ar
    41   23   24 ar
    42   23   42 1
    43   24   25 ar
    44   24   43 1
    45   25   26 ar
    46   25   28 1
    47   26   27 ar
    48   26   44 1
    49   27   45 1
@<TRIPOS>MOLECULE
CHEMBL62772__1
   44    48     0     0     0
SMALL
USER_CHARGES

@<TRIPOS>ATOM
      1 C1         -0.0061    1.4168    0.0171 C.ar      1 <0>        -0.1463
      2 C2          1.1879    2.1146    0.0039 C.ar      1 <0>        -0.1079
      3 C3          2.3849    1.4316   -0.0160 C.ar      1 <0>        -0.1184
      4 C4          2.4052    0.0384   -0.0202 C.ar      1 <0>         0.1752
      5 C5          1.2010   -0.6585    0.0021 C.ar      1 <0>        -0.1136
      6 C6          0.0043    0.0360    0.0153 C.ar      1 <0>        -0.1043
      7 C7          1.1943   -2.1495    0.0275 C.3       1 <0>        -0.0721
      8 C8          1.7696   -2.7685   -1.2154 C.3       1 <0>        -0.0657
      9 C9          3.2490   -2.7941   -1.2468 C.ar      1 <0>        -0.0822
     10 C10         3.9345   -3.8183   -1.8785 C.ar      1 <0>        -0.1536
     11 C11         5.3157   -3.8880   -1.8905 C.ar      1 <0>        -0.1280
     12 C12         6.0911   -2.9341   -1.2517 C.ar      1 <0>        -0.1320
     13 C13         5.4147   -1.8909   -0.6231 C.ar      1 <0>         0.0069
     14 C14         4.0024   -1.7872   -0.6456 C.ar      1 <0>         0.0810
     15 N1          3.6567   -0.5981   -0.0544 N.pl3     1 <0>        -0.4621
     16 C15         4.7729   -0.0227    0.5066 C.2       1 <0>         0.4696
     17 O1          4.7733    1.0928    1.2699 O.3       1 <0>        -0.6755
     18 C16         5.8959   -0.7595    0.1708 C.2       1 <0>        -0.4535
     19 C17         7.2815   -0.4668    0.5354 C.2       1 <0>         0.6475
     20 O2          7.9694    0.2254   -0.1928 O.2       1 <0>        -0.5391
     21 N2          7.7971   -0.9631    1.6775 N.am      1 <0>        -0.6736
     22 C18         9.1487   -0.7644    1.9792 C.ar      1 <0>         0.1723
     23 C19         9.8675   -1.7542    2.6367 C.ar      1 <0>        -0.1453
     24 C20        11.2016   -1.5555    2.9333 C.ar      1 <0>        -0.0919
     25 C21        11.8221   -0.3711    2.5764 C.ar      1 <0>        -0.0634
     26 C22        11.1082    0.6168    1.9211 C.ar      1 <0>        -0.0906
     27 C23         9.7755    0.4207    1.6166 C.ar      1 <0>        -0.1136
     28 Cl1        13.4990   -0.1241    2.9518 Cl        1 <0>        -0.0862
     29 H1         -0.9447    1.9508    0.0333 H         1 <0>         0.1178
     30 H2          1.1824    3.1946    0.0089 H         1 <0>         0.1206
     31 H3          3.3148    1.9809   -0.0289 H         1 <0>         0.1430
     32 H4         -0.9296   -0.5065    0.0239 H         1 <0>         0.1197
     33 H5          1.7738   -2.4871    0.8867 H         1 <0>         0.0691
     34 H6          0.1665   -2.4926    0.1455 H         1 <0>         0.0721
     35 H7          1.4029   -3.7919   -1.2952 H         1 <0>         0.0721
     36 H8          1.4137   -2.2074   -2.0794 H         1 <0>         0.0668
     37 H9          3.3701   -4.5908   -2.3796 H         1 <0>         0.1071
     38 H10         5.7997   -4.7029   -2.4082 H         1 <0>         0.1064
     39 H11         7.1693   -2.9965   -1.2413 H         1 <0>         0.1143
     40 H12         7.2310   -1.4581    2.2903 H         1 <0>         0.4110
     41 H13         9.3836   -2.6784    2.9161 H         1 <0>         0.1327
     42 H14        11.7611   -2.3249    3.4446 H         1 <0>         0.1315
     43 H15        11.5948    1.5403    1.6440 H         1 <0>         0.1319
     44 H16         9.2200    1.1901    1.1010 H         1 <0>         0.1505
@<TRIPOS>BOND
     1    1    6 ar
     2    1    2 ar
     3    1   29 1
     4    2    3 ar
     5    2   30 1
     6    3    4 ar
     7    3   31 1
     8    4   15 1
     9    4    5 ar
    10    5    6 ar
    11    5    7 1
    12    6   32 1
    13    7    8 1
    14    7   33 1
    15    7   34 1
    16    8    9 1
    17    8   35 1
    18    8   36 1
    19    9   14 ar
    20    9   10 ar
    21   10   11 ar
    22   10   37 1
    23   11   12 ar
    24   11   38 1
    25   12   13 ar
    26   12   39 1
    27   13   18 1
    28   13   14 ar
    29   14   15 1
    30   15   16 1
    31   16   17 1
    32   16   18 2
    33   18   19 1
    34   19   20 2
    35   19   21 am
    36   21   22 1
    37   21   40 1
    38   22   27 ar
    39   22   23 ar
    40   23   24 ar
    41   23   41 1
    42   24   25 ar
    43   24   42 1
    44   25   26 ar
    45   25   28 1
    46   26   27 ar
    47   26   43 1
    48   27   44 1
@<TRIPOS>MOLECULE
CHEMBL62772__2
   45    49     0     0     0
SMALL
USER_CHARGES

@<TRIPOS>ATOM
      1 C1          0.0073    1.4014   -0.0192 C.ar      1 <0>        -0.1243
      2 C2          1.1972    2.1081   -0.0234 C.ar      1 <0>        -0.0993
      3 C3          2.3850    1.4107    0.0244 C.ar      1 <0>        -0.1233
      4 C4          2.3836    0.0168    0.0252 C.ar      1 <0>         0.1451
      5 C5          1.2259   -0.6898   -0.0603 C.ar      1 <0>        -0.0920
      6 C6          0.0180    0.0265   -0.0241 C.ar      1 <0>        -0.1081
      7 C7          1.0468   -2.1519   -0.3373 C.3       1 <0>        -0.0764
      8 C8          1.9784   -2.7237   -1.3750 C.3       1 <0>        -0.0718
      9 C9          3.4110   -2.7884   -0.9426 C.ar      1 <0>        -0.0951
     10 C10         4.1478   -3.9038   -1.3457 C.ar      1 <0>        -0.0832
     11 C11         5.4537   -4.1014   -0.9579 C.ar      1 <0>        -0.1342
     12 C12         6.1043   -3.1848   -0.1389 C.ar      1 <0>        -0.0400
     13 C13         5.3840   -2.0721    0.2382 C.ar      1 <0>        -0.1232
     14 C14         4.0553   -1.8576   -0.1590 C.ar      1 <0>         0.1577
     15 N1          3.6286   -0.6078    0.2538 N.am      1 <0>        -0.4937
     16 C15         4.5799    0.0229    0.9951 C.2       1 <0>         0.5320
     17 O1          4.4812    1.1197    1.5036 O.2       1 <0>        -0.4686
     18 C16         5.7819   -0.8914    1.0707 C.3       1 <0>        -0.1035
     19 C17         6.0402   -1.3107    2.4950 C.2       1 <0>         0.5384
     20 O2          5.9138   -2.4731    2.8174 O.2       1 <0>        -0.4905
     21 N2          6.4117   -0.3940    3.4105 N.am      1 <0>        -0.6645
     22 C18         6.5575   -0.7644    4.7524 C.ar      1 <0>         0.1465
     23 C19         6.2148    0.1266    5.7610 C.ar      1 <0>        -0.1279
     24 C20         6.3596   -0.2413    7.0843 C.ar      1 <0>        -0.0907
     25 C21         6.8456   -1.4965    7.4056 C.ar      1 <0>        -0.0475
     26 C22         7.1878   -2.3863    6.4024 C.ar      1 <0>        -0.0912
     27 C23         7.0395   -2.0254    5.0775 C.ar      1 <0>        -0.1082
     28 Cl1         7.0270   -1.9556    9.0699 Cl        1 <0>        -0.0675
     29 H1         -0.9334    1.9319   -0.0076 H         1 <0>         0.1279
     30 H2          1.1950    3.1874   -0.0638 H         1 <0>         0.1333
     31 H3          3.3218    1.9470    0.0612 H         1 <0>         0.1411
     32 H4         -0.9180   -0.5119    0.0006 H         1 <0>         0.1301
     33 H5          1.1934   -2.6985    0.5943 H         1 <0>         0.0744
     34 H6          0.0214   -2.3156   -0.6688 H         1 <0>         0.0879
     35 H7          1.6450   -3.7315   -1.6227 H         1 <0>         0.0890
     36 H8          1.9147   -2.1103   -2.2738 H         1 <0>         0.0775
     37 H9          3.6769   -4.6367   -1.9840 H         1 <0>         0.1309
     38 H10         5.9810   -4.9818   -1.2945 H         1 <0>         0.1320
     39 H11         7.1230   -3.3375    0.1857 H         1 <0>         0.1402
     40 H12         6.6607   -0.4038    0.6486 H         1 <0>         0.1574
     41 H13         6.5781    0.5223    3.1394 H         1 <0>         0.4191
     42 H14         5.8358    1.1064    5.5108 H         1 <0>         0.1375
     43 H15         6.0937    0.4514    7.8690 H         1 <0>         0.1393
     44 H16         7.5672   -3.3652    6.6558 H         1 <0>         0.1386
     45 H17         7.3025   -2.7218    4.2950 H         1 <0>         0.1489
@<TRIPOS>BOND
     1    1    6 ar
     2    1    2 ar
     3    1   29 1
     4    2    3 ar
     5    2   30 1
     6    3    4 ar
     7    3   31 1
     8    4   15 1
     9    4    5 ar
    10    5    6 ar
    11    5    7 1
    12    6   32 1
    13    7    8 1
    14    7   33 1
    15    7   34 1
    16    8    9 1
    17    8   35 1
    18    8   36 1
    19    9   14 ar
    20    9   10 ar
    21   10   11 ar
    22   10   37 1
    23   11   12 ar
    24   11   38 1
    25   12   13 ar
    26   12   39 1
    27   13   18 1
    28   13   14 ar
    29   14   15 1
    30   15   16 am
    31   16   17 2
    32   16   18 1
    33   18   19 1
    34   18   40 1
    35   19   20 2
    36   19   21 am
    37   21   22 1
    38   21   41 1
    39   22   27 ar
    40   22   23 ar
    41   23   24 ar
    42   23   42 1
    43   24   25 ar
    44   24   43 1
    45   25   26 ar
    46   25   28 1
    47   26   27 ar
    48   26   44 1
    49   27   45 1
@<TRIPOS>MOLECULE
CHEMBL316455
   39    42     0     0     0
SMALL
USER_CHARGES

@<TRIPOS>ATOM
      1 C1          0.6395    0.2722   -1.2004 C.ar      1 <0>        -0.1356
      2 C2          1.8248    0.9810   -1.2051 C.ar      1 <0>        -0.0029
      3 C3          2.3770    1.4155   -0.0140 C.ar      1 <0>        -0.6719
      4 C4          1.7447    1.1421    1.1850 C.ar      1 <0>         0.0053
      5 C5          0.5594    0.4333    1.1964 C.ar      1 <0>        -0.1184
      6 C6          0.0021   -0.0041    0.0020 C.ar      1 <0>         0.1903
      7 N1         -1.2003   -0.7223    0.0101 N.pl3     1 <0>        -0.2943
      8 C7         -1.4623   -1.8541   -0.6947 C.2       1 <0>         0.1482
      9 C8         -2.7724   -2.2167   -0.3975 C.2       1 <0>        -0.2014
     10 C9         -3.2833   -1.2960    0.5005 C.2       1 <0>         0.0327
     11 N2         -2.3497   -0.4050    0.7530 N.2       1 <0>        -0.2093
     12 C10        -4.6691   -1.3148    1.0923 C.3       1 <0>         0.5565
     13 F1         -4.6595   -2.0560    2.2788 F         1 <0>        -0.1608
     14 F2         -5.0780   -0.0048    1.3641 F         1 <0>        -0.1611
     15 F3         -5.5564   -1.9012    0.1834 F         1 <0>        -0.1505
     16 S1         -3.5176   -3.6344   -1.1347 S.3       1 <0>        -0.0165
     17 C11        -2.6329   -3.7448   -2.7173 C.3       1 <0>        -0.0820
     18 C12        -1.1546   -3.5260   -2.5327 C.ar      1 <0>        -0.0175
     19 C13        -0.6087   -2.6365   -1.6085 C.ar      1 <0>        -0.0551
     20 C14         0.7788   -2.4738   -1.5294 C.ar      1 <0>        -0.0716
     21 C15         1.6126   -3.2019   -2.3492 C.ar      1 <0>        -0.1446
     22 C16         1.0713   -4.1005   -3.2545 C.ar      1 <0>         0.1315
     23 C17        -0.2988   -4.2583   -3.3435 C.ar      1 <0>        -0.1435
     24 F4          1.8856   -4.8250   -4.0528 F         1 <0>        -0.1264
     25 S2          3.8896    2.3190   -0.0242 S.o2      1 <0>         2.7035
     26 O1          4.4784    2.1397    1.2566 O.2       1 <0>        -0.9551
     27 O2          4.5619    1.9719   -1.2270 O.2       1 <0>        -0.9528
     28 N3          3.5005    3.9240   -0.1457 N.pl3     1 <0>        -1.2459
     29 H1          0.2065   -0.0631   -2.1313 H         1 <0>         0.1460
     30 H2          2.3212    1.1958   -2.1399 H         1 <0>         0.1600
     31 H3          2.1784    1.4828    2.1136 H         1 <0>         0.1596
     32 H4          0.0664    0.2194    2.1332 H         1 <0>         0.1502
     33 H5         -2.7965   -4.7319   -3.1498 H         1 <0>         0.1358
     34 H6         -3.0235   -2.9886   -3.3982 H         1 <0>         0.1128
     35 H7          1.1982   -1.7736   -0.8221 H         1 <0>         0.1402
     36 H8          2.6831   -3.0732   -2.2865 H         1 <0>         0.1507
     37 H9         -0.7091   -4.9607   -4.0539 H         1 <0>         0.1509
     38 H10         4.0791    4.5947    0.2496 H         1 <0>         0.4247
     39 H11         2.6939    4.1936   -0.6123 H         1 <0>         0.4184
@<TRIPOS>BOND
     1    1    6 ar
     2    1    2 ar
     3    1   29 1
     4    2    3 ar
     5    2   30 1
     6    3    4 ar
     7    3   25 1
     8    4    5 ar
     9    4   31 1
    10    5    6 ar
    11    5   32 1
    12    6    7 1
    13    7   11 1
    14    7    8 1
    15    8   19 1
    16    8    9 2
    17    9   10 1
    18    9   16 1
    19   10   11 2
    20   10   12 1
    21   12   13 1
    22   12   14 1
    23   12   15 1
    24   16   17 1
    25   17   18 1
    26   17   33 1
    27   17   34 1
    28   18   23 ar
    29   18   19 ar
    30   19   20 ar
    31   20   21 ar
    32   20   35 1
    33   21   22 ar
    34   21   36 1
    35   22   23 ar
    36   22   24 1
    37   23   37 1
    38   25   26 2
    39   25   27 2
    40   25   28 1
    41   28   38 1
    42   28   39 1
@<TRIPOS>MOLECULE
CHEMBL331489
   42    43     0     0     0
SMALL
USER_CHARGES

@<TRIPOS>ATOM
      1 C1         -0.0187    1.5258    0.0104 C.3       1 <0>        -0.1481
      2 C2          0.0021   -0.0041    0.0020 C.3       1 <0>        -0.0177
      3 C3          0.7421   -0.5109    1.2415 C.3       1 <0>        -0.1399
      4 C4         -1.4333   -0.5336    0.0129 C.3       1 <0>        -0.1403
      5 C5          0.7074   -0.4901   -1.2379 C.ar      1 <0>        -0.1021
      6 C6          1.2152    0.4184   -2.1421 C.ar      1 <0>        -0.0768
      7 C7          1.8676   -0.0319   -3.2888 C.ar      1 <0>        -0.0136
      8 C8          2.0045   -1.4000   -3.5176 C.ar      1 <0>        -0.0623
      9 C9          1.4947   -2.3039   -2.6099 C.ar      1 <0>        -0.1015
     10 C10         0.8503   -1.8524   -1.4656 C.ar      1 <0>         0.1266
     11 O1          0.3544   -2.7451   -0.5701 O.3       1 <0>        -0.4849
     12 C11         1.6424   -3.7832   -2.8566 C.3       1 <0>        -0.0182
     13 C12         2.3895   -4.0087   -4.1726 C.3       1 <0>        -0.1489
     14 C13         2.4306   -4.4157   -1.7078 C.3       1 <0>        -0.1399
     15 C14         0.2570   -4.4272   -2.9399 C.3       1 <0>        -0.1399
     16 C15         2.4146    0.9432   -4.2639 C.2       1 <0>         0.2842
     17 N1          3.0556    0.6338   -5.4030 N.2       1 <0>        -0.5826
     18 C16         3.4064    1.7328   -6.0311 C.2       1 <0>         0.4310
     19 O2          2.9943    2.7838   -5.3021 O.3       1 <0>        -0.1295
     20 N2          2.3466    2.2483   -4.1580 N.2       1 <0>        -0.3960
     21 S1          4.2693    1.8149   -7.5651 S.3       1 <0>        -0.7140
     22 H1          1.0039    1.9031    0.0027 H         1 <0>         0.0601
     23 H2         -0.5459    1.8868   -0.8726 H         1 <0>         0.0594
     24 H3         -0.5289    1.8773    0.9072 H         1 <0>         0.0571
     25 H4          0.2319   -0.1594    2.1383 H         1 <0>         0.0514
     26 H5          0.7568   -1.6008    1.2356 H         1 <0>         0.0744
     27 H6          1.7647   -0.1336    1.2338 H         1 <0>         0.0513
     28 H7         -1.9605   -0.1726   -0.8702 H         1 <0>         0.0544
     29 H8         -1.4185   -1.6235    0.0069 H         1 <0>         0.0575
     30 H9         -1.9435   -0.1821    0.9097 H         1 <0>         0.0580
     31 H10         1.1074    1.4779   -1.9625 H         1 <0>         0.1379
     32 H11         2.5092   -1.7517   -4.4054 H         1 <0>         0.1473
     33 H12        -0.5586   -3.0117   -0.7449 H         1 <0>         0.3791
     34 H13         3.3765   -3.5500   -4.1133 H         1 <0>         0.0623
     35 H14         2.4963   -5.0787   -4.3510 H         1 <0>         0.0567
     36 H15         1.8280   -3.5581   -4.9910 H         1 <0>         0.0616
     37 H16         1.8983   -4.2550   -0.7703 H         1 <0>         0.0734
     38 H17         2.5374   -5.4857   -1.8863 H         1 <0>         0.0517
     39 H18         3.4175   -3.9569   -1.6485 H         1 <0>         0.0516
     40 H19        -0.3045   -3.9766   -3.7583 H         1 <0>         0.0549
     41 H20         0.3638   -5.4971   -3.1183 H         1 <0>         0.0583
     42 H21        -0.2753   -4.2665   -2.0023 H         1 <0>         0.0560
@<TRIPOS>BOND
     1    1    2 1
     2    1   22 1
     3    1   23 1
     4    1   24 1
     5    2    3 1
     6    2    4 1
     7    2    5 1
     8    3   25 1
     9    3   26 1
    10    3   27 1
    11    4   28 1
    12    4   29 1
    13    4   30 1
    14    5   10 ar
    15    5    6 ar
    16    6    7 ar
    17    6   31 1
    18    7    8 ar
    19    7   16 1
    20    8    9 ar
    21    8   32 1
    22    9   10 ar
    23    9   12 1
    24   10   11 1
    25   11   33 1
    26   12   13 1
    27   12   14 1
    28   12   15 1
    29   13   34 1
    30   13   35 1
    31   13   36 1
    32   14   37 1
    33   14   38 1
    34   14   39 1
    35   15   40 1
    36   15   41 1
    37   15   42 1
    38   16   20 2
    39   16   17 1
    40   17   18 2
    41   18   19 1
    42   18   21 1
    43   19   20 1
@<TRIPOS>MOLECULE
CHEMBL61422
   35    39     0     0     0
SMALL
USER_CHARGES

@<TRIPOS>ATOM
      1 C1         -0.0167    1.3790    0.0096 C.ar      1 <0>        -0.1190
      2 C2          1.1717    2.0854    0.0021 C.ar      1 <0>        -0.1195
      3 C3          2.3809    1.4171   -0.0145 C.ar      1 <0>        -0.1201
      4 C4          2.4125    0.0298   -0.0230 C.ar      1 <0>         0.0850
      5 C5          1.2099   -0.6787   -0.0152 C.ar      1 <0>         0.1219
      6 C6          0.0021   -0.0041    0.0020 C.ar      1 <0>        -0.1133
      7 N1          1.2405   -2.0850   -0.0268 N.pl3     1 <0>        -0.4609
      8 C7          2.4913   -2.6590   -0.0481 C.ar      1 <0>        -0.0282
      9 C8          2.4033   -4.0420   -0.0615 C.ar      1 <0>         0.0445
     10 C9          3.5962   -4.7635   -0.0852 C.ar      1 <0>        -0.1466
     11 C10         4.7958   -4.0771   -0.0938 C.ar      1 <0>        -0.0927
     12 C11         4.8534   -2.6871   -0.0792 C.ar      1 <0>        -0.1750
     13 C12         3.6771   -1.9583   -0.0556 C.ar      1 <0>         0.1189
     14 O1          3.6223   -0.6023   -0.0393 O.3       1 <0>        -0.2502
     15 C13         0.9569   -4.3174   -0.0448 C.2       1 <0>        -0.4407
     16 C14         0.3155   -3.0786   -0.0235 C.2       1 <0>         0.4944
     17 O2         -1.0239   -2.8954   -0.0024 O.3       1 <0>        -0.6728
     18 C15         0.3178   -5.6322   -0.0495 C.2       1 <0>         0.6392
     19 O3          0.0658   -6.1905    1.0029 O.2       1 <0>        -0.4840
     20 N2          0.0075   -6.2264   -1.2188 N.am      1 <0>        -0.6165
     21 C16        -0.5998   -7.4756   -1.2233 C.2       1 <0>         0.3079
     22 N3         -0.9486   -8.2188   -0.1952 N.2       1 <0>        -0.5356
     23 C17        -1.5225   -9.3954   -0.3675 C.2       1 <0>         0.0735
     24 C18        -1.7333   -9.7970   -1.6449 C.2       1 <0>        -0.2721
     25 S1         -1.0748   -8.4028   -2.5451 S.3       1 <0>         0.0695
     26 H1         -0.9589    1.9066    0.0260 H         1 <0>         0.1288
     27 H2          1.1547    3.1652    0.0088 H         1 <0>         0.1300
     28 H3          3.3048    1.9765   -0.0213 H         1 <0>         0.1354
     29 H4         -0.9256   -0.5570    0.0092 H         1 <0>         0.1502
     30 H5          3.5830   -5.8433   -0.0965 H         1 <0>         0.1170
     31 H6          5.7186   -4.6381   -0.1120 H         1 <0>         0.1205
     32 H7          5.8076   -2.1813   -0.0859 H         1 <0>         0.1258
     33 H8          0.2082   -5.7816   -2.0571 H         1 <0>         0.4233
     34 H9         -1.8110  -10.0106    0.4720 H         1 <0>         0.1694
     35 H10        -2.1799  -10.7077   -2.0158 H         1 <0>         0.1921
@<TRIPOS>BOND
     1    1    6 ar
     2    1    2 ar
     3    1   26 1
     4    2    3 ar
     5    2   27 1
     6    3    4 ar
     7    3   28 1
     8    4   14 1
     9    4    5 ar
    10    5    6 ar
    11    5    7 1
    12    6   29 1
    13    7   16 1
    14    7    8 1
    15    8   13 ar
    16    8    9 ar
    17    9   10 ar
    18    9   15 1
    19   10   11 ar
    20   10   30 1
    21   11   12 ar
    22   11   31 1
    23   12   13 ar
    24   12   32 1
    25   13   14 1
    26   15   16 2
    27   15   18 1
    28   16   17 1
    29   18   19 2
    30   18   20 am
    31   20   21 1
    32   20   33 1
    33   21   25 1
    34   21   22 2
    35   22   23 1
    36   23   24 2
    37   23   34 1
    38   24   25 1
    39   24   35 1
@<TRIPOS>MOLECULE
CHEMBL61422__1
   36    40     0     0     0
SMALL
USER_CHARGES

@<TRIPOS>ATOM
      1 C1         -0.0167    1.3792    0.0096 C.ar      1 <0>        -0.1133
      2 C2          1.1714    2.0858    0.0021 C.ar      1 <0>        -0.0936
      3 C3          2.3812    1.4179   -0.0118 C.ar      1 <0>        -0.1107
      4 C4          2.4120    0.0307   -0.0183 C.ar      1 <0>         0.0992
      5 C5          1.2107   -0.6777   -0.0120 C.ar      1 <0>         0.0872
      6 C6          0.0021   -0.0041    0.0020 C.ar      1 <0>        -0.1044
      7 N1          1.2393   -2.0861   -0.0205 N.am      1 <0>        -0.4903
      8 C7          2.4956   -2.6781   -0.0295 C.ar      1 <0>         0.0430
      9 C8          2.4483   -4.0504   -0.0343 C.ar      1 <0>        -0.0749
     10 C9          3.6346   -4.7517   -0.0419 C.ar      1 <0>        -0.0615
     11 C10         4.8343   -4.0555   -0.0450 C.ar      1 <0>        -0.0935
     12 C11         4.8673   -2.6692   -0.0415 C.ar      1 <0>        -0.0959
     13 C12         3.6759   -1.9614   -0.0341 C.ar      1 <0>         0.1083
     14 O1          3.6177   -0.6056   -0.0310 O.3       1 <0>        -0.2388
     15 C13         0.9778   -4.3863   -0.0298 C.3       1 <0>        -0.0873
     16 C14         0.2826   -3.0347   -0.0211 C.2       1 <0>         0.5437
     17 O2         -0.9156   -2.8447   -0.0160 O.2       1 <0>        -0.4747
     18 C15         0.6204   -5.1704    1.2065 C.2       1 <0>         0.5318
     19 O3          1.4766   -5.4401    2.0221 O.2       1 <0>        -0.4393
     20 N2         -0.6506   -5.5719    1.4059 N.am      1 <0>        -0.6153
     21 C16        -0.9802   -6.2951    2.5463 C.2       1 <0>         0.2673
     22 N3         -0.1940   -6.6705    3.5318 N.2       1 <0>        -0.5215
     23 C17        -0.6639   -7.3600    4.5548 C.2       1 <0>         0.0617
     24 C18        -1.9860   -7.6599    4.5405 C.2       1 <0>        -0.2416
     25 S1         -2.4836   -6.8967    3.0050 S.3       1 <0>         0.1209
     26 H1         -0.9590    1.9066    0.0260 H         1 <0>         0.1396
     27 H2          1.1541    3.1657    0.0067 H         1 <0>         0.1423
     28 H3          3.3051    1.9771   -0.0179 H         1 <0>         0.1469
     29 H4         -0.9254   -0.5575    0.0067 H         1 <0>         0.1467
     30 H5          3.6302   -5.8317   -0.0450 H         1 <0>         0.1427
     31 H6          5.7637   -4.6055   -0.0499 H         1 <0>         0.1474
     32 H7          5.8123   -2.1463   -0.0441 H         1 <0>         0.1505
     33 H8          0.7120   -4.9456   -0.9268 H         1 <0>         0.1662
     34 H9         -1.3353   -5.3561    0.7536 H         1 <0>         0.4323
     35 H10        -0.0237   -7.6715    5.3669 H         1 <0>         0.1778
     36 H11        -2.5762   -8.2065    5.2611 H         1 <0>         0.2012
@<TRIPOS>BOND
     1    1    6 ar
     2    1    2 ar
     3    1   26 1
     4    2    3 ar
     5    2   27 1
     6    3    4 ar
     7    3   28 1
     8    4   14 1
     9    4    5 ar
    10    5    6 ar
    11    5    7 1
    12    6   29 1
    13    7   16 am
    14    7    8 1
    15    8   13 ar
    16    8    9 ar
    17    9   10 ar
    18    9   15 1
    19   10   11 ar
    20   10   30 1
    21   11   12 ar
    22   11   31 1
    23   12   13 ar
    24   12   32 1
    25   13   14 1
    26   15   16 1
    27   15   18 1
    28   15   33 1
    29   16   17 2
    30   18   19 2
    31   18   20 am
    32   20   21 1
    33   20   34 1
    34   21   25 1
    35   21   22 2
    36   22   23 1
    37   23   24 2
    38   23   35 1
    39   24   25 1
    40   24   36 1
@<TRIPOS>MOLECULE
CHEMBL61422__2
   36    40     0     0     0
SMALL
USER_CHARGES

@<TRIPOS>ATOM
      1 C1         -0.0167    1.3792    0.0096 C.ar      1 <0>        -0.1133
      2 C2          1.1714    2.0858    0.0021 C.ar      1 <0>        -0.0936
      3 C3          2.3812    1.4179   -0.0118 C.ar      1 <0>        -0.1107
      4 C4          2.4120    0.0307   -0.0183 C.ar      1 <0>         0.0992
      5 C5          1.2107   -0.6777   -0.0120 C.ar      1 <0>         0.0872
      6 C6          0.0021   -0.0041    0.0020 C.ar      1 <0>        -0.1043
      7 N1          1.2393   -2.0861   -0.0205 N.am      1 <0>        -0.4903
      8 C7          2.4956   -2.6781   -0.0295 C.ar      1 <0>         0.0430
      9 C8          2.4483   -4.0504   -0.0343 C.ar      1 <0>        -0.0750
     10 C9          3.6346   -4.7517   -0.0419 C.ar      1 <0>        -0.0615
     11 C10         4.8343   -4.0555   -0.0450 C.ar      1 <0>        -0.0935
     12 C11         4.8673   -2.6692   -0.0415 C.ar      1 <0>        -0.0959
     13 C12         3.6759   -1.9614   -0.0341 C.ar      1 <0>         0.1083
     14 O1          3.6177   -0.6056   -0.0310 O.3       1 <0>        -0.2388
     15 C13         0.9778   -4.3863   -0.0298 C.3       1 <0>        -0.0873
     16 C14         0.2826   -3.0347   -0.0211 C.2       1 <0>         0.5437
     17 O2         -0.9156   -2.8447   -0.0160 O.2       1 <0>        -0.4747
     18 C15         0.6104   -5.1596   -1.2700 C.2       1 <0>         0.5318
     19 O3          1.4599   -5.4222   -2.0948 O.2       1 <0>        -0.4392
     20 N2         -0.6623   -5.5594   -1.4625 N.am      1 <0>        -0.6153
     21 C16        -1.0012   -6.2726   -2.6064 C.2       1 <0>         0.2673
     22 N3         -0.2207   -6.6494   -3.5960 N.2       1 <0>        -0.5215
     23 C17        -0.6994   -7.3282   -4.6221 C.2       1 <0>         0.0617
     24 C18        -2.0241   -7.6160   -4.6064 C.2       1 <0>        -0.2417
     25 S1         -2.5083   -6.8703   -3.0581 S.3       1 <0>         0.1209
     26 H1         -0.9590    1.9066    0.0260 H         1 <0>         0.1396
     27 H2          1.1541    3.1657    0.0067 H         1 <0>         0.1423
     28 H3          3.3051    1.9771   -0.0179 H         1 <0>         0.1469
     29 H4         -0.9254   -0.5575    0.0067 H         1 <0>         0.1467
     30 H5          3.6302   -5.8317   -0.0450 H         1 <0>         0.1427
     31 H6          5.7637   -4.6055   -0.0499 H         1 <0>         0.1474
     32 H7          5.8123   -2.1463   -0.0441 H         1 <0>         0.1505
     33 H8          0.7193   -4.9534    0.8644 H         1 <0>         0.1661
     34 H9         -1.3417   -5.3493   -0.8028 H         1 <0>         0.4323
     35 H10        -0.0640   -7.6402   -5.4378 H         1 <0>         0.1778
     36 H11        -2.6212   -8.1519   -5.3294 H         1 <0>         0.2012
@<TRIPOS>BOND
     1    1    6 ar
     2    1    2 ar
     3    1   26 1
     4    2    3 ar
     5    2   27 1
     6    3    4 ar
     7    3   28 1
     8    4   14 1
     9    4    5 ar
    10    5    6 ar
    11    5    7 1
    12    6   29 1
    13    7   16 am
    14    7    8 1
    15    8   13 ar
    16    8    9 ar
    17    9   10 ar
    18    9   15 1
    19   10   11 ar
    20   10   30 1
    21   11   12 ar
    22   11   31 1
    23   12   13 ar
    24   12   32 1
    25   13   14 1
    26   15   16 1
    27   15   18 1
    28   15   33 1
    29   16   17 2
    30   18   19 2
    31   18   20 am
    32   20   21 1
    33   20   34 1
    34   21   25 1
    35   21   22 2
    36   22   23 1
    37   23   24 2
    38   23   35 1
    39   24   25 1
    40   24   36 1
@<TRIPOS>MOLECULE
CHEMBL139591
   47    51     0     0     0
SMALL
USER_CHARGES

@<TRIPOS>ATOM
      1 C1         -0.0169    1.3924    0.0097 C.ar      1 <0>        -0.0838
      2 C2          1.1682    2.0959    0.0022 C.ar      1 <0>        -0.1291
      3 C3          2.3808    1.4175   -0.0131 C.ar      1 <0>         0.1378
      4 C4          2.4038    0.0282   -0.0207 C.ar      1 <0>        -0.1273
      5 C5          1.2229   -0.6823   -0.0137 C.ar      1 <0>        -0.0683
      6 C6          0.0021   -0.0041    0.0020 C.ar      1 <0>        -0.0236
      7 C7         -1.2660   -0.7619    0.0105 C.2       1 <0>         0.0631
      8 C8         -1.5468   -1.8382    0.7876 C.2       1 <0>        -0.1300
      9 C9         -2.8535   -2.2556    0.4848 C.2       1 <0>        -0.1313
     10 C10        -3.3427   -1.4237   -0.4687 C.2       1 <0>         0.0671
     11 N1         -2.3710   -0.4970   -0.7631 N.pl3     1 <0>        -0.5498
     12 H1         -2.4508    0.2216   -1.4098 H         1 <0>         0.4152
     13 C11        -4.6863   -1.4973   -1.0793 C.ar      1 <0>        -0.0303
     14 C12        -5.2049   -2.7283   -1.4856 C.ar      1 <0>        -0.0695
     15 C13        -6.4596   -2.7911   -2.0545 C.ar      1 <0>        -0.1483
     16 C14        -7.2055   -1.6353   -2.2232 C.ar      1 <0>         0.1020
     17 C15        -6.6956   -0.4107   -1.8222 C.ar      1 <0>        -0.1491
     18 C16        -5.4443   -0.3368   -1.2469 C.ar      1 <0>        -0.0841
     19 F1         -8.4341   -1.7027   -2.7811 F         1 <0>        -0.1369
     20 C17        -3.5268   -3.4341    1.1424 C.3       1 <0>        -0.0514
     21 C18        -2.4460   -4.2844    1.8222 C.3       1 <0>        -0.1161
     22 C19        -1.5618   -3.3941    2.6980 C.3       1 <0>        -0.1166
     23 C20        -0.6702   -2.5156    1.8110 C.3       1 <0>        -0.0491
     24 N2          3.5840    2.1366   -0.0212 N.pl3     1 <0>        -0.4128
     25 C21         4.8490    1.6084   -0.0416 C.2       1 <0>        -0.0543
     26 C22         5.7055    2.6475   -0.0425 C.2       1 <0>        -0.0195
     27 N3          4.9889    3.7810   -0.0231 N.2       1 <0>        -0.4831
     28 C23         3.7168    3.4884   -0.0161 C.2       1 <0>         0.1886
     29 H2         -0.9589    1.9203    0.0260 H         1 <0>         0.1317
     30 H3          1.1544    3.1758    0.0077 H         1 <0>         0.1351
     31 H4          3.3482   -0.4956   -0.0326 H         1 <0>         0.1358
     32 H5          1.2415   -1.7621   -0.0204 H         1 <0>         0.1388
     33 H6         -4.6244   -3.6296   -1.3550 H         1 <0>         0.1395
     34 H7         -6.8616   -3.7428   -2.3695 H         1 <0>         0.1408
     35 H8         -7.2810    0.4869   -1.9564 H         1 <0>         0.1387
     36 H9         -5.0499    0.6175   -0.9303 H         1 <0>         0.1302
     37 H10        -4.2402   -3.0817    1.8874 H         1 <0>         0.0706
     38 H11        -4.0439   -4.0294    0.3898 H         1 <0>         0.0700
     39 H12        -2.9201   -5.0458    2.4416 H         1 <0>         0.0645
     40 H13        -1.8330   -4.7675    1.0612 H         1 <0>         0.0635
     41 H14        -2.1913   -2.7589    3.3212 H         1 <0>         0.0634
     42 H15        -0.9359   -4.0192    3.3349 H         1 <0>         0.0644
     43 H16         0.0721   -3.1349    1.3074 H         1 <0>         0.0697
     44 H17        -0.1699   -1.7642    2.4219 H         1 <0>         0.0691
     45 H18         5.1087    0.5601   -0.0541 H         1 <0>         0.1792
     46 H19         6.7833    2.5798   -0.0558 H         1 <0>         0.1764
     47 H20         2.9059    4.2016   -0.0056 H         1 <0>         0.2088
@<TRIPOS>BOND
     1    1    6 ar
     2    1    2 ar
     3    1   29 1
     4    2    3 ar
     5    2   30 1
     6    3    4 ar
     7    3   24 1
     8    4    5 ar
     9    4   31 1
    10    5    6 ar
    11    5   32 1
    12    6    7 1
    13    7   11 1
    14    7    8 2
    15    8   23 1
    16    8    9 1
    17    9   10 2
    18    9   20 1
    19   10   11 1
    20   10   13 1
    21   11   12 1
    22   13   18 ar
    23   13   14 ar
    24   14   15 ar
    25   14   33 1
    26   15   16 ar
    27   15   34 1
    28   16   17 ar
    29   16   19 1
    30   17   18 ar
    31   17   35 1
    32   18   36 1
    33   20   21 1
    34   20   37 1
    35   20   38 1
    36   21   22 1
    37   21   39 1
    38   21   40 1
    39   22   23 1
    40   22   41 1
    41   22   42 1
    42   23   43 1
    43   23   44 1
    44   24   28 1
    45   24   25 1
    46   25   26 2
    47   25   45 1
    48   26   27 1
    49   26   46 1
    50   27   28 2
    51   28   47 1
@<TRIPOS>MOLECULE
CHEMBL34264
   26    28     0     0     0
SMALL
USER_CHARGES

@<TRIPOS>ATOM
      1 C1         -0.0167    1.3790    0.0096 C.ar      1 <0>        -0.1071
      2 C2          1.1686    2.0919    0.0021 C.ar      1 <0>        -0.1202
      3 C3          2.3774    1.4259   -0.0129 C.ar      1 <0>        -0.0886
      4 C4          2.4022    0.0327   -0.0206 C.ar      1 <0>        -0.0632
      5 C5          1.2051   -0.6804   -0.0130 C.ar      1 <0>        -0.0964
      6 C6          0.0021   -0.0041    0.0020 C.ar      1 <0>        -0.1206
      7 C7          3.6986   -0.6888   -0.0373 C.ar      1 <0>         0.0037
      8 C8          3.9351   -1.7120    0.8745 C.ar      1 <0>        -0.0897
      9 C9          5.1487   -2.3913    0.8621 C.ar      1 <0>         0.1039
     10 C10         6.1117   -2.0298   -0.0719 C.ar      1 <0>        -0.1537
     11 C11         5.8829   -1.0176   -0.9770 C.ar      1 <0>        -0.0512
     12 C12         4.6751   -0.3435   -0.9709 C.ar      1 <0>        -0.0412
     13 Cl1         4.3790    0.9285   -2.1146 Cl        1 <0>        -0.0429
     14 C13         7.2934   -2.9420    0.1733 C.3       1 <0>        -0.1436
     15 C14         6.8323   -3.8061    1.3297 C.2       1 <0>         0.4979
     16 O1          7.4614   -4.6872    1.8662 O.2       1 <0>        -0.4214
     17 O2          5.5946   -3.4056    1.6424 O.3       1 <0>        -0.2713
     18 H1         -0.9603    1.9042    0.0260 H         1 <0>         0.1251
     19 H2          1.1482    3.1717    0.0077 H         1 <0>         0.1268
     20 H3          3.3023    1.9835   -0.0191 H         1 <0>         0.1261
     21 H4          1.2186   -1.7603   -0.0193 H         1 <0>         0.1261
     22 H5         -0.9264   -0.5558    0.0079 H         1 <0>         0.1270
     23 H6          3.1751   -1.9794    1.5938 H         1 <0>         0.1489
     24 H7          6.6455   -0.7525   -1.6944 H         1 <0>         0.1482
     25 H8          7.4965   -3.5530   -0.7061 H         1 <0>         0.1387
     26 H9          8.1741   -2.3637    0.4527 H         1 <0>         0.1387
@<TRIPOS>BOND
     1    1    6 ar
     2    1    2 ar
     3    1   18 1
     4    2    3 ar
     5    2   19 1
     6    3    4 ar
     7    3   20 1
     8    4    5 ar
     9    4    7 1
    10    5    6 ar
    11    5   21 1
    12    6   22 1
    13    7   12 ar
    14    7    8 ar
    15    8    9 ar
    16    8   23 1
    17    9   17 1
    18    9   10 ar
    19   10   11 ar
    20   10   14 1
    21   11   12 ar
    22   11   24 1
    23   12   13 1
    24   14   15 1
    25   14   25 1
    26   14   26 1
    27   15   16 2
    28   15   17 1
@<TRIPOS>MOLECULE
CHEMBL473946
   36    38     0     0     0
SMALL
USER_CHARGES

@<TRIPOS>ATOM
      1 C1          0.2390    0.8164   -0.5961 C.3       1 <0>         0.0259
      2 O1          0.2641   -0.6047   -0.4490 O.3       1 <0>        -0.3166
      3 C2          0.8351   -1.0981    0.6814 C.ar      1 <0>         0.1332
      4 C3          1.3548   -0.2290    1.6309 C.ar      1 <0>        -0.2064
      5 C4          1.9353   -0.7263    2.7789 C.ar      1 <0>        -0.0646
      6 C5          1.9994   -2.1037    2.9854 C.ar      1 <0>        -0.0606
      7 C6          1.4760   -2.9739    2.0300 C.ar      1 <0>        -0.0541
      8 C7          0.8922   -2.4698    0.8866 C.ar      1 <0>        -0.1485
      9 C8          2.6232   -2.6419    4.2180 C.2       1 <0>        -0.1249
     10 C9          3.9168   -2.3276    4.5988 C.2       1 <0>         0.0871
     11 N1          4.4210   -2.8278    5.6943 N.2       1 <0>        -0.4403
     12 S1          3.1987   -3.7799    6.3324 S.3       1 <0>         0.2226
     13 C10         1.9495   -3.5018    5.0903 C.2       1 <0>        -0.0680
     14 C11         0.5757   -4.0370    5.0052 C.ar      1 <0>        -0.0627
     15 C12         0.3395   -5.3968    5.2183 C.ar      1 <0>        -0.0538
     16 C13        -0.9444   -5.8921    5.1384 C.ar      1 <0>        -0.1500
     17 C14        -2.0021   -5.0410    4.8464 C.ar      1 <0>         0.1453
     18 C15        -1.7717   -3.6882    4.6338 C.ar      1 <0>        -0.2070
     19 C16        -0.4917   -3.1837    4.7170 C.ar      1 <0>        -0.0366
     20 O2         -3.2661   -5.5334    4.7681 O.3       1 <0>        -0.3137
     21 C17        -4.3071   -4.6030    4.4640 C.3       1 <0>         0.0245
     22 H1          1.2592    1.2002   -0.5918 H         1 <0>         0.0570
     23 H2         -0.2428    1.0757   -1.5389 H         1 <0>         0.1016
     24 H3         -0.3186    1.2575    0.2302 H         1 <0>         0.0564
     25 H4          1.3048    0.8379    1.4702 H         1 <0>         0.1310
     26 H5          2.3401   -0.0496    3.5168 H         1 <0>         0.1271
     27 H6          1.5241   -4.0413    2.1869 H         1 <0>         0.1294
     28 H7          0.4826   -3.1431    0.1482 H         1 <0>         0.1331
     29 H8          4.5117   -1.6659    3.9866 H         1 <0>         0.1780
     30 H9          1.1616   -6.0595    5.4451 H         1 <0>         0.1350
     31 H10        -1.1278   -6.9437    5.3027 H         1 <0>         0.1384
     32 H11        -2.5971   -3.0298    4.4066 H         1 <0>         0.1340
     33 H12        -0.3139   -2.1307    4.5559 H         1 <0>         0.1288
     34 H13        -4.1116   -4.1426    3.4955 H         1 <0>         0.0583
     35 H14        -5.2633   -5.1253    4.4317 H         1 <0>         0.1032
     36 H15        -4.3406   -3.8312    5.2330 H         1 <0>         0.0579
@<TRIPOS>BOND
     1    1    2 1
     2    1   22 1
     3    1   23 1
     4    1   24 1
     5    2    3 1
     6    3    8 ar
     7    3    4 ar
     8    4    5 ar
     9    4   25 1
    10    5    6 ar
    11    5   26 1
    12    6    7 ar
    13    6    9 1
    14    7    8 ar
    15    7   27 1
    16    8   28 1
    17    9   13 2
    18    9   10 1
    19   10   11 2
    20   10   29 1
    21   11   12 1
    22   12   13 1
    23   13   14 1
    24   14   19 ar
    25   14   15 ar
    26   15   16 ar
    27   15   30 1
    28   16   17 ar
    29   16   31 1
    30   17   18 ar
    31   17   20 1
    32   18   19 ar
    33   18   32 1
    34   19   33 1
    35   20   21 1
    36   21   34 1
    37   21   35 1
    38   21   36 1
@<TRIPOS>MOLECULE
CHEMBL49008
   46    47     0     0     0
SMALL
USER_CHARGES

@<TRIPOS>ATOM
      1 C1          0.7327    1.4985    0.3615 C.3       1 <0>        -0.1520
      2 C2          0.4347    0.0043    0.2210 C.3       1 <0>        -0.0223
      3 C3          1.2080   -0.7725    1.2885 C.3       1 <0>        -0.1430
      4 C4         -1.0654   -0.2358    0.4021 C.3       1 <0>        -0.1431
      5 C5          0.8572   -0.4657   -1.1471 C.ar      1 <0>        -0.0912
      6 C6          1.4196    0.4229   -2.0355 C.ar      1 <0>        -0.0792
      7 C7          1.8121   -0.0154   -3.3063 C.ar      1 <0>        -0.1042
      8 C8          1.6298   -1.3565   -3.6660 C.ar      1 <0>        -0.0696
      9 C9          1.0664   -2.2364   -2.7697 C.ar      1 <0>        -0.0965
     10 C10         0.6834   -1.7970   -1.5076 C.ar      1 <0>         0.1485
     11 O1          0.1329   -2.6702   -0.6257 O.3       1 <0>        -0.4824
     12 C11         0.8695   -3.6798   -3.1553 C.3       1 <0>        -0.0213
     13 C12         1.3758   -3.9001   -4.5822 C.3       1 <0>        -0.1495
     14 C13         1.6513   -4.5760   -2.1927 C.3       1 <0>        -0.1436
     15 C14        -0.6183   -4.0289   -3.0824 C.3       1 <0>        -0.1433
     16 C15         2.4122    0.9279   -4.2583 C.2       1 <0>         0.0822
     17 C16         2.7465    2.1796   -3.8541 C.2       1 <0>        -0.2225
     18 C17         3.2028    3.3356   -4.6511 C.2       1 <0>         0.5625
     19 O2          3.3337    3.2675   -5.8592 O.2       1 <0>        -0.4711
     20 N1          3.4617    4.4489   -3.9860 N.am      1 <0>        -0.6853
     21 C18         3.3153    4.5200   -2.6473 C.2       1 <0>         0.5274
     22 O3          3.5154    5.4704   -1.9150 O.2       1 <0>        -0.4187
     23 S1          2.7480    2.8841   -2.2111 S.3       1 <0>        -0.0309
     24 H1          1.8014    1.6695    0.2325 H         1 <0>         0.0610
     25 H2          0.1818    2.0519   -0.3990 H         1 <0>         0.0599
     26 H3          0.4271    1.8384    1.3510 H         1 <0>         0.0642
     27 H4          0.9025   -0.4325    2.2780 H         1 <0>         0.0574
     28 H5          0.9958   -1.8369    1.1884 H         1 <0>         0.0753
     29 H6          2.2768   -0.6014    1.1595 H         1 <0>         0.0528
     30 H7         -1.6164    0.3177   -0.3584 H         1 <0>         0.0555
     31 H8         -1.2777   -1.3002    0.3020 H         1 <0>         0.0582
     32 H9         -1.3710    0.1042    1.3916 H         1 <0>         0.0640
     33 H10         1.5576    1.4561   -1.7530 H         1 <0>         0.1439
     34 H11         1.9304   -1.6997   -4.6449 H         1 <0>         0.1415
     35 H12        -0.8302   -2.7333   -0.6839 H         1 <0>         0.3877
     36 H13         2.4358   -3.6515   -4.6341 H         1 <0>         0.0601
     37 H14         1.2334   -4.9442   -4.8611 H         1 <0>         0.0623
     38 H15         0.8188   -3.2617   -5.2679 H         1 <0>         0.0595
     39 H16         1.2907   -4.4191   -1.1761 H         1 <0>         0.0757
     40 H17         1.5090   -5.6201   -2.4716 H         1 <0>         0.0565
     41 H18         2.7113   -4.3274   -2.2446 H         1 <0>         0.0524
     42 H19        -1.1753   -3.3904   -3.7682 H         1 <0>         0.0557
     43 H20        -0.7607   -5.0729   -3.3613 H         1 <0>         0.0632
     44 H21        -0.9790   -3.8719   -2.0659 H         1 <0>         0.0579
     45 H22         2.5875    0.6256   -5.2802 H         1 <0>         0.1644
     46 H23         3.7640    5.2320   -4.4721 H         1 <0>         0.4201
@<TRIPOS>BOND
     1    1    2 1
     2    1   24 1
     3    1   25 1
     4    1   26 1
     5    2    3 1
     6    2    4 1
     7    2    5 1
     8    3   27 1
     9    3   28 1
    10    3   29 1
    11    4   30 1
    12    4   31 1
    13    4   32 1
    14    5   10 ar
    15    5    6 ar
    16    6    7 ar
    17    6   33 1
    18    7    8 ar
    19    7   16 1
    20    8    9 ar
    21    8   34 1
    22    9   10 ar
    23    9   12 1
    24   10   11 1
    25   11   35 1
    26   12   13 1
    27   12   14 1
    28   12   15 1
    29   13   36 1
    30   13   37 1
    31   13   38 1
    32   14   39 1
    33   14   40 1
    34   14   41 1
    35   15   42 1
    36   15   43 1
    37   15   44 1
    38   16   17 2
    39   16   45 1
    40   17   23 1
    41   17   18 1
    42   18   19 2
    43   18   20 am
    44   20   21 am
    45   20   46 1
    46   21   22 2
    47   21   23 1
@<TRIPOS>MOLECULE
CHEMBL91832
   41    43     0     0     0
SMALL
USER_CHARGES

@<TRIPOS>ATOM
      1 C1         -0.0187    1.5258    0.0104 C.3       1 <0>        -0.1396
      2 C2          0.0021   -0.0041    0.0020 C.3       1 <0>        -0.0809
      3 C3          0.7492   -0.5928   -1.1750 C.2       1 <0>        -0.0093
      4 C4          1.7002   -1.1164   -0.3357 C.2       1 <0>        -0.1540
      5 C5          1.0732   -0.5995    0.8891 C.2       1 <0>         0.4053
      6 O1          1.3093   -0.6344    2.0791 O.2       1 <0>        -0.4013
      7 C6          2.9232   -1.9175   -0.5778 C.ar      1 <0>        -0.0473
      8 C7          2.8236   -3.2027   -1.1100 C.ar      1 <0>        -0.0708
      9 C8          3.9650   -3.9443   -1.3341 C.ar      1 <0>        -0.1514
     10 C9          5.2089   -3.4144   -1.0308 C.ar      1 <0>         0.1072
     11 C10         5.3129   -2.1379   -0.5018 C.ar      1 <0>        -0.1505
     12 C11         4.1777   -1.3864   -0.2795 C.ar      1 <0>        -0.0671
     13 F1          6.3238   -4.1449   -1.2511 F         1 <0>        -0.1357
     14 C12         0.5408   -0.6005   -2.6279 C.ar      1 <0>         0.0190
     15 C13         0.6072    0.5944   -3.3551 C.ar      1 <0>        -0.1144
     16 C14         0.4107    0.5780   -4.7193 C.ar      1 <0>        -0.0203
     17 C15         0.1483   -0.6152   -5.3706 C.ar      1 <0>        -0.6527
     18 C16         0.0810   -1.8010   -4.6594 C.ar      1 <0>        -0.0199
     19 C17         0.2802   -1.8036   -3.2955 C.ar      1 <0>        -0.1145
     20 S1         -0.1018   -0.6244   -7.1147 S.o2      1 <0>         2.4984
     21 O2         -0.9135   -1.7650   -7.3585 O.2       1 <0>        -0.9344
     22 O3         -0.5751    0.6802   -7.4200 O.2       1 <0>        -0.9343
     23 C18         1.5506   -0.8709   -7.8213 C.3       1 <0>        -0.6499
     24 C19        -1.3827   -0.6175    0.2187 C.3       1 <0>        -0.1377
     25 H1          1.0039    1.9031    0.0027 H         1 <0>         0.0644
     26 H2         -0.5459    1.8868   -0.8726 H         1 <0>         0.0755
     27 H3         -0.5289    1.8773    0.9072 H         1 <0>         0.0766
     28 H4          1.8545   -3.6168   -1.3461 H         1 <0>         0.1335
     29 H5          3.8889   -4.9397   -1.7462 H         1 <0>         0.1411
     30 H6          6.2846   -1.7292   -0.2670 H         1 <0>         0.1412
     31 H7          4.2600   -0.3899    0.1286 H         1 <0>         0.1348
     32 H8          0.8114    1.5262   -2.8486 H         1 <0>         0.1394
     33 H9          0.4611    1.4986   -5.2817 H         1 <0>         0.1492
     34 H10        -0.1242   -2.7274   -5.1753 H         1 <0>         0.1490
     35 H11         0.2317   -2.7302   -2.7428 H         1 <0>         0.1370
     36 H12         1.9596   -1.8173   -7.4676 H         1 <0>         0.1322
     37 H13         1.4817   -0.8887   -8.9090 H         1 <0>         0.1351
     38 H14         2.2035   -0.0547   -7.5120 H         1 <0>         0.1323
     39 H15        -2.0032   -0.4328   -0.6582 H         1 <0>         0.0749
     40 H16        -1.2839   -1.6918    0.3742 H         1 <0>         0.0639
     41 H17        -1.8476   -0.1648    1.0946 H         1 <0>         0.0761
@<TRIPOS>BOND
     1    1    2 1
     2    1   25 1
     3    1   26 1
     4    1   27 1
     5    2    5 1
     6    2    3 1
     7    2   24 1
     8    3    4 2
     9    3   14 1
    10    4    5 1
    11    4    7 1
    12    5    6 2
    13    7   12 ar
    14    7    8 ar
    15    8    9 ar
    16    8   28 1
    17    9   10 ar
    18    9   29 1
    19   10   11 ar
    20   10   13 1
    21   11   12 ar
    22   11   30 1
    23   12   31 1
    24   14   19 ar
    25   14   15 ar
    26   15   16 ar
    27   15   32 1
    28   16   17 ar
    29   16   33 1
    30   17   18 ar
    31   17   20 1
    32   18   19 ar
    33   18   34 1
    34   19   35 1
    35   20   21 2
    36   20   22 2
    37   20   23 1
    38   23   36 1
    39   23   37 1
    40   23   38 1
    41   24   39 1
    42   24   40 1
    43   24   41 1
@<TRIPOS>MOLECULE
CHEMBL417254
   51    53     0     0     0
SMALL
USER_CHARGES

@<TRIPOS>ATOM
      1 C1         -0.0187    1.5258    0.0104 C.3       1 <0>        -0.1368
      2 C2          0.0021   -0.0041    0.0020 C.3       1 <0>        -0.0515
      3 C3         -1.4208   -0.5776    0.2013 C.3       1 <0>         0.0540
      4 O1         -1.4944   -0.7620    1.6248 O.3       1 <0>        -0.2903
      5 C4         -0.2449   -0.9741    2.1168 C.ar      1 <0>         0.1552
      6 C5          0.7294   -0.5433    1.2192 C.ar      1 <0>        -0.1740
      7 C6          2.0544   -0.6499    1.5157 C.ar      1 <0>        -0.0070
      8 C7          2.4559   -1.2073    2.7370 C.ar      1 <0>        -0.1947
      9 C8          1.4846   -1.6506    3.6432 C.ar      1 <0>        -0.0396
     10 C9          0.1507   -1.5340    3.3336 C.ar      1 <0>        -0.1030
     11 C10        -0.8905   -2.0129    4.3121 C.3       1 <0>        -0.0218
     12 C11        -0.2005   -2.5788    5.5549 C.3       1 <0>        -0.1482
     13 C12        -1.7880   -0.8414    4.7159 C.3       1 <0>        -0.1416
     14 C13        -1.7403   -3.1048    3.6589 C.3       1 <0>        -0.1418
     15 C14         3.8828   -1.3260    3.0636 C.2       1 <0>         0.4183
     16 O2          4.7197   -0.9407    2.2746 O.2       1 <0>        -0.4308
     17 C15         4.3073   -1.9265    4.3789 C.3       1 <0>        -0.1534
     18 S1          6.1183   -1.9337    4.4840 S.3       1 <0>        -0.1957
     19 C16         6.4610   -2.6769    6.1029 C.3       1 <0>        -0.0683
     20 C17         7.9735   -2.7443    6.3232 C.3       1 <0>        -0.1418
     21 C18         8.6074   -4.1308    6.4534 C.3       1 <0>        -0.1731
     22 C19         8.4678   -3.2346    7.6856 C.3       1 <0>        -0.1697
     23 C20         0.6299   -0.5328   -1.2892 C.3       1 <0>        -0.1384
     24 H1          1.0039    1.9031    0.0027 H         1 <0>         0.0647
     25 H2         -0.5459    1.8868   -0.8726 H         1 <0>         0.0666
     26 H3         -0.5289    1.8773    0.9072 H         1 <0>         0.0607
     27 H4         -2.1745    0.1343   -0.1352 H         1 <0>         0.1107
     28 H5         -1.5291   -1.5301   -0.3174 H         1 <0>         0.0823
     29 H6          2.7954   -0.3053    0.8096 H         1 <0>         0.1353
     30 H7          1.7840   -2.0846    4.5857 H         1 <0>         0.1427
     31 H8          0.4049   -1.8009    6.0202 H         1 <0>         0.0591
     32 H9         -0.9536   -2.9252    6.2626 H         1 <0>         0.0633
     33 H10         0.4389   -3.4134    5.2672 H         1 <0>         0.0589
     34 H11        -2.2796   -0.4383    3.8305 H         1 <0>         0.0648
     35 H12        -2.5411   -1.1878    5.4237 H         1 <0>         0.0596
     36 H13        -1.1826   -0.0636    5.1812 H         1 <0>         0.0542
     37 H14        -1.1009   -3.9394    3.3712 H         1 <0>         0.0540
     38 H15        -2.4934   -3.4512    4.3667 H         1 <0>         0.0599
     39 H16        -2.2319   -2.7017    2.7735 H         1 <0>         0.0637
     40 H17         3.8982   -1.3344    5.1976 H         1 <0>         0.1152
     41 H18         3.9353   -2.9487    4.4486 H         1 <0>         0.1150
     42 H19         6.0066   -2.0690    6.8853 H         1 <0>         0.0849
     43 H20         6.0437   -3.6833    6.1363 H         1 <0>         0.0820
     44 H21         8.5561   -1.9690    5.8257 H         1 <0>         0.1139
     45 H22         7.9468   -4.9948    6.3821 H         1 <0>         0.0961
     46 H23         9.6071   -4.2678    6.0413 H         1 <0>         0.0981
     47 H24         9.3758   -2.7821    8.0842 H         1 <0>         0.0992
     48 H25         7.7155   -3.5091    8.4250 H         1 <0>         0.0960
     49 H26         1.6576   -0.1776   -1.3654 H         1 <0>         0.0659
     50 H27         0.6221   -1.6227   -1.2772 H         1 <0>         0.0612
     51 H28         0.0574   -0.1747   -2.1448 H         1 <0>         0.0661
@<TRIPOS>BOND
     1    1    2 1
     2    1   24 1
     3    1   25 1
     4    1   26 1
     5    2    6 1
     6    2    3 1
     7    2   23 1
     8    3    4 1
     9    3   27 1
    10    3   28 1
    11    4    5 1
    12    5   10 ar
    13    5    6 ar
    14    6    7 ar
    15    7    8 ar
    16    7   29 1
    17    8    9 ar
    18    8   15 1
    19    9   10 ar
    20    9   30 1
    21   10   11 1
    22   11   12 1
    23   11   13 1
    24   11   14 1
    25   12   31 1
    26   12   32 1
    27   12   33 1
    28   13   34 1
    29   13   35 1
    30   13   36 1
    31   14   37 1
    32   14   38 1
    33   14   39 1
    34   15   16 2
    35   15   17 1
    36   17   18 1
    37   17   40 1
    38   17   41 1
    39   18   19 1
    40   19   20 1
    41   19   42 1
    42   19   43 1
    43   20   22 1
    44   20   21 1
    45   20   44 1
    46   21   22 1
    47   21   45 1
    48   21   46 1
    49   22   47 1
    50   22   48 1
    51   23   49 1
    52   23   50 1
    53   23   51 1
@<TRIPOS>MOLECULE
CHEMBL325804
   43    45     0     0     0
SMALL
USER_CHARGES

@<TRIPOS>ATOM
      1 C1         -0.2359    1.5269    0.0193 C.3       1 <0>        -0.1575
      2 C2         -0.0863    0.0043    0.0172 C.3       1 <0>         0.1327
      3 C3          0.7142   -0.4361   -1.1861 C.2       1 <0>        -0.0530
      4 C4          1.8163   -1.0596   -0.7080 C.2       1 <0>        -0.0144
      5 C5          1.7663   -1.0432    0.7558 C.2       1 <0>         0.4877
      6 O1          2.6098   -1.5229    1.4884 O.2       1 <0>        -0.4233
      7 O2          0.6487   -0.4181    1.1697 O.3       1 <0>        -0.2938
      8 O3          2.8053   -1.6091   -1.4610 O.3       1 <0>        -0.2118
      9 C6          2.9599   -2.9586   -1.4246 C.ar      1 <0>         0.1187
     10 C7          2.0515   -3.7435   -0.7285 C.ar      1 <0>        -0.1755
     11 C8          2.2104   -5.1151   -0.6927 C.ar      1 <0>        -0.0677
     12 C9          3.2749   -5.7066   -1.3499 C.ar      1 <0>        -0.0611
     13 C10         4.1821   -4.9258   -2.0442 C.ar      1 <0>        -0.0696
     14 C11         4.0231   -3.5544   -2.0881 C.ar      1 <0>        -0.1231
     15 Cl1         3.4727   -7.4307   -1.3028 Cl        1 <0>        -0.0610
     16 C12         0.3643   -0.2281   -2.5999 C.ar      1 <0>         0.0097
     17 C13         0.3456    1.0633   -3.1368 C.ar      1 <0>        -0.1147
     18 C14         0.0167    1.2499   -4.4628 C.ar      1 <0>        -0.0200
     19 C15        -0.2945    0.1636   -5.2619 C.ar      1 <0>        -0.6490
     20 C16        -0.2783   -1.1174   -4.7381 C.ar      1 <0>        -0.0174
     21 C17         0.0542   -1.3212   -3.4155 C.ar      1 <0>        -0.1086
     22 S1         -0.7141    0.4128   -6.9550 S.o2      1 <0>         2.4979
     23 O4         -1.4334   -0.7552   -7.3260 O.2       1 <0>        -0.9336
     24 O5         -1.3377    1.6892   -6.9899 O.2       1 <0>        -0.9329
     25 C18         0.8761    0.4702   -7.8258 C.3       1 <0>        -0.6496
     26 C19        -1.4654   -0.6581    0.0025 C.3       1 <0>        -0.1512
     27 H1          0.7513    1.9890    0.0297 H         1 <0>         0.0733
     28 H2         -0.7743    1.8403   -0.8751 H         1 <0>         0.0903
     29 H3         -0.7912    1.8363    0.9047 H         1 <0>         0.0884
     30 H4          1.2210   -3.2821   -0.2149 H         1 <0>         0.1268
     31 H5          1.5037   -5.7263   -0.1511 H         1 <0>         0.1410
     32 H6          5.0126   -5.3894   -2.5558 H         1 <0>         0.1469
     33 H7          4.7287   -2.9458   -2.6341 H         1 <0>         0.1459
     34 H8          0.5879    1.9120   -2.5144 H         1 <0>         0.1414
     35 H9          0.0015    2.2465   -4.8788 H         1 <0>         0.1499
     36 H10        -0.5223   -1.9600   -5.3681 H         1 <0>         0.1518
     37 H11         0.0711   -2.3218   -3.0094 H         1 <0>         0.1356
     38 H12         1.3670   -0.5000   -7.7502 H         1 <0>         0.1332
     39 H13         0.7071    0.7110   -8.8754 H         1 <0>         0.1358
     40 H14         1.5097    1.2341   -7.3752 H         1 <0>         0.1324
     41 H15        -2.0020   -0.3599   -0.8982 H         1 <0>         0.0893
     42 H16        -1.3482   -1.7417    0.0137 H         1 <0>         0.0712
     43 H17        -2.0285   -0.3444    0.8815 H         1 <0>         0.0892
@<TRIPOS>BOND
     1    1    2 1
     2    1   27 1
     3    1   28 1
     4    1   29 1
     5    2    7 1
     6    2    3 1
     7    2   26 1
     8    3    4 2
     9    3   16 1
    10    4    5 1
    11    4    8 1
    12    5    6 2
    13    5    7 1
    14    8    9 1
    15    9   14 ar
    16    9   10 ar
    17   10   11 ar
    18   10   30 1
    19   11   12 ar
    20   11   31 1
    21   12   13 ar
    22   12   15 1
    23   13   14 ar
    24   13   32 1
    25   14   33 1
    26   16   21 ar
    27   16   17 ar
    28   17   18 ar
    29   17   34 1
    30   18   19 ar
    31   18   35 1
    32   19   20 ar
    33   19   22 1
    34   20   21 ar
    35   20   36 1
    36   21   37 1
    37   22   23 2
    38   22   24 2
    39   22   25 1
    40   25   38 1
    41   25   39 1
    42   25   40 1
    43   26   41 1
    44   26   42 1
    45   26   43 1
@<TRIPOS>MOLECULE
CHEMBL62038
   29    31     0     0     0
SMALL
USER_CHARGES

@<TRIPOS>ATOM
      1 C1          1.9025    3.4154   -2.8069 C.2       1 <0>        -0.1822
      2 C2          2.1917    3.1284   -1.4938 C.2       1 <0>        -0.1077
      3 C3          3.1899    2.1885   -1.2887 C.2       1 <0>        -0.2282
      4 S1          3.6517    1.7741   -2.9599 S.3       1 <0>         0.2414
      5 C4          2.5907    2.7803   -3.7871 C.2       1 <0>        -0.2625
      6 C5          3.7269    1.6700   -0.0250 C.2       1 <0>         0.5575
      7 O1          3.3541    2.1425    1.0353 O.2       1 <0>        -0.4632
      8 C6          4.7105    0.5848   -0.0376 C.2       1 <0>        -0.4597
      9 C7          6.1796    0.7228    0.0078 C.ar      1 <0>         0.0233
     10 C8          7.0407    1.8152    0.0710 C.ar      1 <0>        -0.1172
     11 C9          8.4047    1.6093    0.1006 C.ar      1 <0>        -0.0332
     12 C10         8.9170    0.3205    0.0675 C.ar      1 <0>        -0.1429
     13 C11         8.0731   -0.7686    0.0049 C.ar      1 <0>        -0.0989
     14 C12         6.6971   -0.5803   -0.0256 C.ar      1 <0>         0.0804
     15 N1          5.6254   -1.4612   -0.0873 N.am      1 <0>        -0.5216
     16 C13         4.4464   -0.7722   -0.0884 C.2       1 <0>         0.4918
     17 O2          3.2157   -1.3282   -0.1348 O.3       1 <0>        -0.6719
     18 C14         5.7333   -2.8038   -0.1334 C.2       1 <0>         0.7415
     19 O3          5.7530   -3.4476    0.8971 O.2       1 <0>        -0.5370
     20 N2          5.8192   -3.4325   -1.3225 N.am      1 <0>        -0.8414
     21 Cl1         9.4832    2.9674    0.1788 Cl        1 <0>        -0.0954
     22 H1          1.1345    4.1334   -3.0541 H         1 <0>         0.1269
     23 H2          1.6745    3.6052   -0.6743 H         1 <0>         0.1420
     24 H3          2.4819    2.8950   -4.8555 H         1 <0>         0.1801
     25 H4          6.6428    2.8189    0.0965 H         1 <0>         0.1221
     26 H5          9.9861    0.1687    0.0907 H         1 <0>         0.1249
     27 H6          8.4820   -1.7679   -0.0200 H         1 <0>         0.1167
     28 H7          5.8035   -2.9186   -2.1450 H         1 <0>         0.4038
     29 H8          5.8969   -4.3988   -1.3557 H         1 <0>         0.4105
@<TRIPOS>BOND
     1    1    5 2
     2    1    2 1
     3    1   22 1
     4    2    3 2
     5    2   23 1
     6    3    4 1
     7    3    6 1
     8    4    5 1
     9    5   24 1
    10    6    7 2
    11    6    8 1
    12    8   16 2
    13    8    9 1
    14    9   14 ar
    15    9   10 ar
    16   10   11 ar
    17   10   25 1
    18   11   12 ar
    19   11   21 1
    20   12   13 ar
    21   12   26 1
    22   13   14 ar
    23   13   27 1
    24   14   15 1
    25   15   16 1
    26   15   18 am
    27   16   17 1
    28   18   19 2
    29   18   20 am
    30   20   28 1
    31   20   29 1
@<TRIPOS>MOLECULE
CHEMBL111562
   42    44     0     0     0
SMALL
USER_CHARGES

@<TRIPOS>ATOM
      1 C1         -0.0173    1.4248    0.0099 C.3       1 <0>         0.0260
      2 O1          0.0021   -0.0041    0.0020 O.3       1 <0>        -0.3168
      3 C2          0.6056   -0.6069   -1.0553 C.ar      1 <0>         0.1317
      4 C3          1.1724    0.1651   -2.0614 C.ar      1 <0>        -0.2067
      5 C4          1.7860   -0.4418   -3.1356 C.ar      1 <0>        -0.0636
      6 C5          1.8375   -1.8366   -3.2118 C.ar      1 <0>        -0.0811
      7 C6          1.2657   -2.6092   -2.1969 C.ar      1 <0>        -0.0615
      8 C7          0.6589   -1.9932   -1.1240 C.ar      1 <0>        -0.1503
      9 C8          2.4920   -2.4904   -4.3586 C.2       1 <0>        -0.0609
     10 C9          3.5958   -3.2452   -4.2788 C.2       1 <0>        -0.1097
     11 C10         3.9893   -3.7552   -5.6459 C.3       1 <0>        -0.0836
     12 C11         2.7309   -3.5583   -6.5211 C.3       1 <0>        -0.1221
     13 C12         2.0081   -2.4083   -5.7878 C.3       1 <0>        -0.0887
     14 C13         4.3251   -3.5371   -3.0318 C.ar      1 <0>         0.0353
     15 C14         4.9504   -2.5056   -2.3262 C.ar      1 <0>        -0.1237
     16 C15         5.6306   -2.7863   -1.1598 C.ar      1 <0>        -0.0149
     17 C16         5.6953   -4.0856   -0.6881 C.ar      1 <0>        -0.6781
     18 C17         5.0790   -5.1123   -1.3816 C.ar      1 <0>        -0.0155
     19 C18         4.3898   -4.8458   -2.5462 C.ar      1 <0>        -0.1310
     20 S1          6.5672   -4.4346    0.8028 S.o2      1 <0>         2.7003
     21 O2          6.9434   -5.8035    0.7423 O.2       1 <0>        -0.9634
     22 O3          7.5161   -3.3905    0.9722 O.2       1 <0>        -0.9637
     23 N1          5.4837   -4.2960    2.0475 N.pl3     1 <0>        -1.2499
     24 H1          1.0053    1.8021    0.0021 H         1 <0>         0.0567
     25 H2         -0.5445    1.7859   -0.8732 H         1 <0>         0.0566
     26 H3         -0.5275    1.7763    0.9067 H         1 <0>         0.1021
     27 H4          1.1318    1.2427   -2.0018 H         1 <0>         0.1304
     28 H5          2.2261    0.1592   -3.9176 H         1 <0>         0.1260
     29 H6          1.3027   -3.6872   -2.2517 H         1 <0>         0.1277
     30 H7          0.2204   -2.5892   -0.3374 H         1 <0>         0.1325
     31 H8          4.8215   -3.1737   -6.0424 H         1 <0>         0.0807
     32 H9          4.2540   -4.8113   -5.5947 H         1 <0>         0.0753
     33 H10         3.0034   -3.2670   -7.5355 H         1 <0>         0.0784
     34 H11         2.1160   -4.4583   -6.5275 H         1 <0>         0.0740
     35 H12         0.9281   -2.5491   -5.8311 H         1 <0>         0.0767
     36 H13         2.2841   -1.4497   -6.2271 H         1 <0>         0.0809
     37 H14         4.9013   -1.4912   -2.6936 H         1 <0>         0.1322
     38 H15         6.1143   -1.9901   -0.6134 H         1 <0>         0.1432
     39 H16         5.1342   -6.1240   -1.0078 H         1 <0>         0.1446
     40 H17         3.9052   -5.6473   -3.0840 H         1 <0>         0.1353
     41 H18         4.5612   -4.0595    1.8634 H         1 <0>         0.4170
     42 H19         5.7717   -4.4514    2.9607 H         1 <0>         0.4214
@<TRIPOS>BOND
     1    1    2 1
     2    1   24 1
     3    1   25 1
     4    1   26 1
     5    2    3 1
     6    3    8 ar
     7    3    4 ar
     8    4    5 ar
     9    4   27 1
    10    5    6 ar
    11    5   28 1
    12    6    7 ar
    13    6    9 1
    14    7    8 ar
    15    7   29 1
    16    8   30 1
    17    9   13 1
    18    9   10 2
    19   10   11 1
    20   10   14 1
    21   11   12 1
    22   11   31 1
    23   11   32 1
    24   12   13 1
    25   12   33 1
    26   12   34 1
    27   13   35 1
    28   13   36 1
    29   14   19 ar
    30   14   15 ar
    31   15   16 ar
    32   15   37 1
    33   16   17 ar
    34   16   38 1
    35   17   18 ar
    36   17   20 1
    37   18   19 ar
    38   18   39 1
    39   19   40 1
    40   20   21 2
    41   20   22 2
    42   20   23 1
    43   23   41 1
    44   23   42 1
@<TRIPOS>MOLECULE
CHEMBL55737
   39    41     0     0     0
SMALL
USER_CHARGES

@<TRIPOS>ATOM
      1 C1         -0.0184    1.5028    0.0103 C.3       1 <0>        -0.1097
      2 C2          0.0021   -0.0041    0.0020 C.ar      1 <0>        -0.1043
      3 C3          0.0058   -0.6852   -1.1956 C.ar      1 <0>        -0.0986
      4 C4          0.0252   -2.0834   -1.2019 C.ar      1 <0>        -0.0575
      5 C5          0.0408   -2.7833    0.0085 C.ar      1 <0>        -0.1047
      6 C6          0.0370   -2.0930    1.2009 C.ar      1 <0>        -0.1036
      7 C7          0.0230   -0.7039    1.2018 C.ar      1 <0>         0.1028
      8 O1          0.0245   -0.0276    2.3801 O.3       1 <0>        -0.4913
      9 C8          0.0533   -2.8460    2.5061 C.3       1 <0>        -0.1099
     10 C9          0.0287   -2.8163   -2.4791 C.2       1 <0>        -0.1001
     11 C10         0.0474   -4.1616   -2.4826 C.2       1 <0>        -0.1061
     12 C11         0.0509   -4.8931   -3.7573 C.ar      1 <0>        -0.0442
     13 C12         0.0410   -4.2097   -4.9683 C.ar      1 <0>        -0.1104
     14 C13         0.0444   -4.9036   -6.1701 C.ar      1 <0>        -0.1138
     15 C14         0.0579   -6.2642   -6.2141 C.ar      1 <0>        -0.1043
     16 C15         0.0690   -7.0199   -5.0298 C.ar      1 <0>        -0.0513
     17 C16         0.0712   -6.3548   -3.7793 C.ar      1 <0>        -0.0411
     18 C17         0.0868   -7.1041   -2.5971 C.ar      1 <0>        -0.1076
     19 C18         0.1050   -8.4656   -2.6626 C.ar      1 <0>        -0.1136
     20 C19         0.1087   -9.1229   -3.8906 C.ar      1 <0>        -0.1172
     21 C20         0.0830   -8.4252   -5.0596 C.ar      1 <0>        -0.1048
     22 H1          1.0042    1.8801    0.0026 H         1 <0>         0.0731
     23 H2         -0.5455    1.8639   -0.8728 H         1 <0>         0.0668
     24 H3         -0.5286    1.8543    0.9071 H         1 <0>         0.0681
     25 H4         -0.0067   -0.1402   -2.1279 H         1 <0>         0.1290
     26 H5          0.0555   -3.8632    0.0088 H         1 <0>         0.1280
     27 H6         -0.8584    0.1558    2.7294 H         1 <0>         0.3869
     28 H7          1.0848   -3.0136    2.8161 H         1 <0>         0.0732
     29 H8         -0.4650   -2.2637    3.2680 H         1 <0>         0.0684
     30 H9         -0.4482   -3.8054    2.3784 H         1 <0>         0.0663
     31 H10         0.0163   -2.2740   -3.4129 H         1 <0>         0.1253
     32 H11         0.0599   -4.7039   -1.5487 H         1 <0>         0.1243
     33 H12         0.0301   -3.1298   -4.9736 H         1 <0>         0.1273
     34 H13         0.0357   -4.3486   -7.0965 H         1 <0>         0.1244
     35 H14         0.0598   -6.7680   -7.1695 H         1 <0>         0.1265
     36 H15         0.0848   -6.6065   -1.6386 H         1 <0>         0.1263
     37 H16         0.1170   -9.0426   -1.7497 H         1 <0>         0.1246
     38 H17         0.1236  -10.2025   -3.9159 H         1 <0>         0.1243
     39 H18         0.0851   -8.9484   -6.0044 H         1 <0>         0.1284
@<TRIPOS>BOND
     1    1    2 1
     2    1   22 1
     3    1   23 1
     4    1   24 1
     5    2    7 ar
     6    2    3 ar
     7    3    4 ar
     8    3   25 1
     9    4    5 ar
    10    4   10 1
    11    5    6 ar
    12    5   26 1
    13    6    7 ar
    14    6    9 1
    15    7    8 1
    16    8   27 1
    17    9   28 1
    18    9   29 1
    19    9   30 1
    20   10   11 2
    21   10   31 1
    22   11   12 1
    23   11   32 1
    24   12   17 ar
    25   12   13 ar
    26   13   14 ar
    27   13   33 1
    28   14   15 ar
    29   14   34 1
    30   15   16 ar
    31   15   35 1
    32   16   21 ar
    33   16   17 ar
    34   17   18 ar
    35   18   19 ar
    36   18   36 1
    37   19   20 ar
    38   19   37 1
    39   20   21 ar
    40   20   38 1
    41   21   39 1
@<TRIPOS>MOLECULE
CHEMBL174990
   35    37     0     0     0
SMALL
USER_CHARGES

@<TRIPOS>ATOM
      1 C1          1.1515    0.6602   -0.3597 C.3       1 <0>         0.0772
      2 N1          0.4959   -0.6478   -0.2863 N.am      1 <0>        -0.5356
      3 C2         -0.0361   -1.1689   -1.4074 C.2       1 <0>         0.5599
      4 O1          0.0325   -0.5556   -2.4565 O.2       1 <0>        -0.5552
      5 C3         -0.6986   -2.4776   -1.3637 C.ar      1 <0>        -0.2165
      6 C4         -1.2624   -3.0536   -2.5026 C.ar      1 <0>        -0.0253
      7 C5         -1.8731   -4.2845   -2.4104 C.ar      1 <0>        -0.2011
      8 C6         -1.9337   -4.9573   -1.1970 C.ar      1 <0>        -0.0690
      9 C7         -1.3834   -4.4069   -0.0599 C.ar      1 <0>        -0.1736
     10 C8         -0.7606   -3.1631   -0.1308 C.ar      1 <0>         0.1107
     11 C9         -0.1556   -2.5284    1.0519 C.2       1 <0>        -0.4505
     12 C10        -0.1915   -3.1955    2.3551 C.2       1 <0>         0.6399
     13 N2         -1.0690   -2.7916    3.2950 N.am      1 <0>        -0.6698
     14 C11        -1.0292   -3.3523    4.5762 C.ar      1 <0>         0.1779
     15 C12         0.1836   -3.7482    5.1249 C.ar      1 <0>        -0.1120
     16 C13         0.2200   -4.3010    6.3900 C.ar      1 <0>        -0.0889
     17 C14        -0.9505   -4.4610    7.1106 C.ar      1 <0>        -0.0653
     18 C15        -2.1604   -4.0674    6.5661 C.ar      1 <0>        -0.0903
     19 C16        -2.2018   -3.5088    5.3038 C.ar      1 <0>        -0.1488
     20 Cl1        -0.9013   -5.1573    8.7001 Cl        1 <0>        -0.0866
     21 O2          0.5711   -4.1150    2.5894 O.2       1 <0>        -0.5407
     22 C17         0.4530   -1.2911    0.9103 C.2       1 <0>         0.5039
     23 O3          1.0135   -0.7077    1.9898 O.3       1 <0>        -0.6719
     24 H1          2.2076    0.5246   -0.5932 H         1 <0>         0.0560
     25 H2          0.6810    1.2592   -1.1394 H         1 <0>         0.0742
     26 H3          1.0539    1.1699    0.5988 H         1 <0>         0.0850
     27 H4         -1.2206   -2.5373   -3.4502 H         1 <0>         0.1230
     28 H5         -2.3099   -4.7314   -3.2912 H         1 <0>         0.1141
     29 H6         -2.4173   -5.9215   -1.1440 H         1 <0>         0.1128
     30 H7         -1.4350   -4.9363    0.8800 H         1 <0>         0.1143
     31 H8         -1.7280   -2.1121    3.0832 H         1 <0>         0.4102
     32 H9          1.0973   -3.6242    4.5628 H         1 <0>         0.1465
     33 H10         1.1629   -4.6090    6.8172 H         1 <0>         0.1317
     34 H11        -3.0725   -4.1937    7.1304 H         1 <0>         0.1312
     35 H12        -3.1457   -3.1976    4.8811 H         1 <0>         0.1322
@<TRIPOS>BOND
     1    1    2 1
     2    1   24 1
     3    1   25 1
     4    1   26 1
     5    2   22 1
     6    2    3 am
     7    3    4 2
     8    3    5 1
     9    5   10 ar
    10    5    6 ar
    11    6    7 ar
    12    6   27 1
    13    7    8 ar
    14    7   28 1
    15    8    9 ar
    16    8   29 1
    17    9   10 ar
    18    9   30 1
    19   10   11 1
    20   11   12 1
    21   11   22 2
    22   12   13 am
    23   12   21 2
    24   13   14 1
    25   13   31 1
    26   14   19 ar
    27   14   15 ar
    28   15   16 ar
    29   15   32 1
    30   16   17 ar
    31   16   33 1
    32   17   18 ar
    33   17   20 1
    34   18   19 ar
    35   18   34 1
    36   19   35 1
    37   22   23 1
@<TRIPOS>MOLECULE
CHEMBL213029
   43    46     0     0     0
SMALL
USER_CHARGES

@<TRIPOS>ATOM
      1 C1         -0.0184    1.5028    0.0103 C.3       1 <0>        -0.0842
      2 C2          0.0021   -0.0041    0.0020 C.2       1 <0>         0.0712
      3 C3          0.0079   -0.7685   -1.1009 C.2       1 <0>        -0.0862
      4 C4          0.0296   -2.1653   -0.6569 C.ar      1 <0>        -0.0420
      5 C5          0.0439   -3.3926   -1.3225 C.ar      1 <0>        -0.0943
      6 C6          0.0637   -4.5645   -0.5923 C.ar      1 <0>         0.0918
      7 C7          0.0694   -4.5240    0.7995 C.ar      1 <0>        -0.1820
      8 C8          0.0554   -3.3188    1.4660 C.ar      1 <0>        -0.0941
      9 C9          0.0354   -2.1280    0.7487 C.ar      1 <0>         0.0778
     10 N1          0.0235   -0.7971    1.1200 N.pl3     1 <0>        -0.4572
     11 C10         0.0289   -0.3316    2.4323 C.ar      1 <0>         0.2109
     12 C11        -1.1548   -0.1150    3.1182 C.ar      1 <0>        -0.1679
     13 C12        -1.1169    0.3498    4.4263 C.ar      1 <0>         0.1446
     14 N2          0.0163    0.5941    5.0419 N.ar      1 <0>        -0.4697
     15 C13         1.1963    0.4074    4.4404 C.ar      1 <0>         0.1463
     16 C14         1.2432   -0.0707    3.1086 C.ar      1 <0>        -0.1001
     17 C15         2.4832   -0.2699    2.4849 C.ar      1 <0>        -0.0607
     18 C16         3.6313   -0.0070    3.1688 C.ar      1 <0>        -0.1114
     19 C17         3.5894    0.4577    4.4826 C.ar      1 <0>        -0.0051
     20 C18         2.4012    0.6740    5.1130 C.ar      1 <0>        -0.0921
     21 Cl1         5.0739    0.7807    5.3226 Cl        1 <0>        -0.0617
     22 O1          0.0773   -5.7627   -1.2351 O.3       1 <0>        -0.3192
     23 C19         0.0975   -6.9361   -0.4197 C.3       1 <0>         0.0311
     24 C20        -0.0059   -0.2824   -2.5273 C.3       1 <0>        -0.1234
     25 C21         1.4102   -0.0999   -3.0095 C.2       1 <0>         0.4973
     26 O2          2.3440   -0.3421   -2.2639 O.co2     1 <0>        -0.6865
     27 O3          1.6220    0.2899   -4.1451 O.co2     1 <0>        -0.7059
     28 H1          1.0042    1.8801    0.0026 H         1 <0>         0.0767
     29 H2         -0.5455    1.8639   -0.8728 H         1 <0>         0.0844
     30 H3         -0.5286    1.8543    0.9071 H         1 <0>         0.0556
     31 H4          0.0392   -3.4251   -2.4020 H         1 <0>         0.1311
     32 H5          0.0846   -5.4461    1.3615 H         1 <0>         0.1265
     33 H6          0.0597   -3.2987    2.5458 H         1 <0>         0.1142
     34 H7         -2.1029   -0.3063    2.6378 H         1 <0>         0.1458
     35 H8         -2.0459    0.5152    4.9517 H         1 <0>         0.1683
     36 H9          2.5276   -0.6303    1.4677 H         1 <0>         0.1487
     37 H10         4.5859   -0.1608    2.6876 H         1 <0>         0.1428
     38 H11         2.3854    1.0350    6.1308 H         1 <0>         0.1481
     39 H12         0.1067   -7.8208   -1.0563 H         1 <0>         0.0942
     40 H13         0.9905   -6.9289    0.2053 H         1 <0>         0.0509
     41 H14        -0.7893   -6.9536    0.2139 H         1 <0>         0.0500
     42 H15        -0.5122   -1.0149   -3.1559 H         1 <0>         0.0680
     43 H16        -0.5337    0.6697   -2.5816 H         1 <0>         0.0674
@<TRIPOS>BOND
     1    1    2 1
     2    1   28 1
     3    1   29 1
     4    1   30 1
     5    2   10 1
     6    2    3 2
     7    3    4 1
     8    3   24 1
     9    4    9 ar
    10    4    5 ar
    11    5    6 ar
    12    5   31 1
    13    6    7 ar
    14    6   22 1
    15    7    8 ar
    16    7   32 1
    17    8    9 ar
    18    8   33 1
    19    9   10 1
    20   10   11 1
    21   11   16 ar
    22   11   12 ar
    23   12   13 ar
    24   12   34 1
    25   13   14 ar
    26   13   35 1
    27   14   15 ar
    28   15   20 ar
    29   15   16 ar
    30   16   17 ar
    31   17   18 ar
    32   17   36 1
    33   18   19 ar
    34   18   37 1
    35   19   20 ar
    36   19   21 1
    37   20   38 1
    38   22   23 1
    39   23   39 1
    40   23   40 1
    41   23   41 1
    42   24   25 1
    43   24   42 1
    44   24   43 1
    45   25   26 2
    46   25   27 1
@<TRIPOS>MOLECULE
CHEMBL260944
   29    30     0     0     0
SMALL
USER_CHARGES

@<TRIPOS>ATOM
      1 C1         -0.0225    1.8097    0.0120 C.3       1 <0>        -0.6527
      2 S1          0.0021   -0.0041    0.0020 S.o2      1 <0>         2.4926
      3 O1          0.8352   -0.4880    1.0465 O.2       1 <0>        -0.9350
      4 O2         -1.3147   -0.5105   -0.1678 O.2       1 <0>        -0.9251
      5 C2          0.8454   -0.4373   -1.4831 C.ar      1 <0>        -0.6408
      6 C3          2.0584   -1.0915   -1.4238 C.ar      1 <0>        -0.0200
      7 C4          2.7218   -1.4329   -2.5890 C.ar      1 <0>        -0.1263
      8 C5          2.1750   -1.1210   -3.8216 C.ar      1 <0>        -0.0638
      9 C6          0.9632   -0.4672   -3.8966 C.ar      1 <0>        -0.1111
     10 C7          0.2845   -0.1243   -2.7239 C.ar      1 <0>         0.1080
     11 C8         -0.9772    0.5495   -2.7937 C.1       1 <0>        -0.1401
     12 C9         -2.0115    1.1019   -2.8509 C.1       1 <0>        -0.0682
     13 C10        -3.2732    1.7757   -2.9207 C.ar      1 <0>         0.0495
     14 C11        -3.9627    2.1372   -1.7550 C.ar      1 <0>        -0.1443
     15 C12        -5.1743    2.7850   -1.8696 C.ar      1 <0>         0.1050
     16 N1         -5.6848    3.0641   -3.0541 N.ar      1 <0>        -0.4764
     17 C13        -5.0697    2.7421   -4.1764 C.ar      1 <0>         0.1042
     18 C14        -3.8510    2.0977   -4.1566 C.ar      1 <0>        -0.1457
     19 H1          1.0001    2.1870    0.0043 H         1 <0>         0.1355
     20 H2         -0.5497    2.1708   -0.8711 H         1 <0>         0.1283
     21 H3         -0.5327    2.1613    0.9088 H         1 <0>         0.1376
     22 H4          2.4914   -1.3375   -0.4655 H         1 <0>         0.1532
     23 H5          3.6712   -1.9450   -2.5364 H         1 <0>         0.1402
     24 H6          2.6989   -1.3900   -4.7269 H         1 <0>         0.1400
     25 H7          0.5379   -0.2241   -4.8591 H         1 <0>         0.1388
     26 H8         -3.5514    1.9114   -0.7823 H         1 <0>         0.1445
     27 H9         -5.7134    3.0678   -0.9775 H         1 <0>         0.1654
     28 H10        -5.5254    2.9902   -5.1236 H         1 <0>         0.1646
     29 H11        -3.3513    1.8410   -5.0791 H         1 <0>         0.1422
@<TRIPOS>BOND
     1    1    2 1
     2    1   19 1
     3    1   20 1
     4    1   21 1
     5    2    3 2
     6    2    4 2
     7    2    5 1
     8    5   10 ar
     9    5    6 ar
    10    6    7 ar
    11    6   22 1
    12    7    8 ar
    13    7   23 1
    14    8    9 ar
    15    8   24 1
    16    9   10 ar
    17    9   25 1
    18   10   11 1
    19   11   12 3
    20   12   13 1
    21   13   18 ar
    22   13   14 ar
    23   14   15 ar
    24   14   26 1
    25   15   16 ar
    26   15   27 1
    27   16   17 ar
    28   17   18 ar
    29   17   28 1
    30   18   29 1
@<TRIPOS>MOLECULE
CHEMBL55448
   36    38     0     0     0
SMALL
USER_CHARGES

@<TRIPOS>ATOM
      1 C1         -0.0184    1.5028    0.0103 C.3       1 <0>        -0.1097
      2 C2          0.0021   -0.0041    0.0020 C.ar      1 <0>        -0.1040
      3 C3          0.0057   -0.6855   -1.1960 C.ar      1 <0>        -0.0991
      4 C4          0.0247   -2.0832   -1.2023 C.ar      1 <0>        -0.0559
      5 C5          0.0399   -2.7829    0.0078 C.ar      1 <0>        -0.1052
      6 C6          0.0361   -2.0924    1.2005 C.ar      1 <0>        -0.1033
      7 C7          0.0230   -0.7037    1.2015 C.ar      1 <0>         0.1024
      8 O1          0.0254   -0.0272    2.3801 O.3       1 <0>        -0.4914
      9 C8          0.0520   -2.8454    2.5058 C.3       1 <0>        -0.1099
     10 C9          0.0281   -2.8165   -2.4800 C.2       1 <0>        -0.1018
     11 C10         0.0464   -4.1610   -2.4836 C.2       1 <0>        -0.0922
     12 C11         0.0498   -4.8932   -3.7593 C.2       1 <0>        -0.0745
     13 C12         0.0403   -4.2245   -4.9419 C.2       1 <0>        -0.1522
     14 S1          0.0493   -5.5281   -6.1570 S.3       1 <0>         0.0403
     15 C13         0.0653   -6.9288   -5.0681 C.ar      1 <0>        -0.1150
     16 C14         0.0696   -6.3573   -3.7801 C.ar      1 <0>        -0.0798
     17 C15         0.0869   -7.2528   -2.6881 C.ar      1 <0>        -0.0765
     18 C16         0.1043   -8.6076   -2.8950 C.ar      1 <0>        -0.1200
     19 C17         0.1054   -9.1414   -4.1760 C.ar      1 <0>        -0.0948
     20 C18         0.0772   -8.2934   -5.2654 C.ar      1 <0>        -0.0771
     21 H1          1.0042    1.8801    0.0026 H         1 <0>         0.0731
     22 H2         -0.5455    1.8639   -0.8728 H         1 <0>         0.0668
     23 H3         -0.5286    1.8543    0.9071 H         1 <0>         0.0682
     24 H4         -0.0065   -0.1404   -2.1283 H         1 <0>         0.1289
     25 H5          0.0542   -3.8629    0.0081 H         1 <0>         0.1278
     26 H6         -0.8572    0.1569    2.7298 H         1 <0>         0.3868
     27 H7          1.0834   -3.0133    2.8159 H         1 <0>         0.0732
     28 H8         -0.4662   -2.2629    3.2676 H         1 <0>         0.0684
     29 H9         -0.4498   -3.8046    2.3781 H         1 <0>         0.0662
     30 H10         0.0160   -2.2742   -3.4139 H         1 <0>         0.1229
     31 H11         0.0585   -4.7034   -1.5497 H         1 <0>         0.1229
     32 H12         0.0296   -3.1572   -5.1065 H         1 <0>         0.1910
     33 H13         0.0868   -6.8660   -1.6797 H         1 <0>         0.1250
     34 H14         0.1177   -9.2728   -2.0443 H         1 <0>         0.1297
     35 H15         0.1200  -10.2117   -4.3196 H         1 <0>         0.1361
     36 H16         0.0782   -8.6968   -6.2672 H         1 <0>         0.1326
@<TRIPOS>BOND
     1    1    2 1
     2    1   21 1
     3    1   22 1
     4    1   23 1
     5    2    7 ar
     6    2    3 ar
     7    3    4 ar
     8    3   24 1
     9    4    5 ar
    10    4   10 1
    11    5    6 ar
    12    5   25 1
    13    6    7 ar
    14    6    9 1
    15    7    8 1
    16    8   26 1
    17    9   27 1
    18    9   28 1
    19    9   29 1
    20   10   11 2
    21   10   30 1
    22   11   12 1
    23   11   31 1
    24   12   16 1
    25   12   13 2
    26   13   14 1
    27   13   32 1
    28   14   15 1
    29   15   20 ar
    30   15   16 ar
    31   16   17 ar
    32   17   18 ar
    33   17   33 1
    34   18   19 ar
    35   18   34 1
    36   19   20 ar
    37   19   35 1
    38   20   36 1
@<TRIPOS>MOLECULE
CHEMBL455837
   34    36     0     0     0
SMALL
USER_CHARGES

@<TRIPOS>ATOM
      1 C1         -1.1609   -0.7304    0.2219 C.3       1 <0>        -0.6492
      2 S1          0.6256   -0.8858    0.4956 S.o2      1 <0>         2.5000
      3 O1          1.1592    0.3478    0.9567 O.2       1 <0>        -0.9311
      4 O2          0.9126   -2.0992    1.1771 O.2       1 <0>        -0.9310
      5 C2          1.3130   -1.0999   -1.1126 C.ar      1 <0>        -0.6542
      6 C3          1.4573   -2.3710   -1.6377 C.ar      1 <0>        -0.0042
      7 C4          1.9963   -2.5421   -2.8978 C.ar      1 <0>        -0.1188
      8 C5          2.3930   -1.4361   -3.6376 C.ar      1 <0>         0.1838
      9 C6          2.2464   -0.1611   -3.1079 C.ar      1 <0>        -0.1314
     10 C7          1.7019    0.0038   -1.8493 C.ar      1 <0>        -0.0066
     11 N1          2.9406   -1.6065   -4.9164 N.pl3     1 <0>        -0.3306
     12 C8          4.0498   -0.9839   -5.4262 C.2       1 <0>         0.1016
     13 C9          4.2066   -1.4543   -6.6963 C.2       1 <0>        -0.0489
     14 N2          3.2358   -2.3274   -6.9542 N.2       1 <0>        -0.2214
     15 N3          2.4670   -2.4533   -5.9299 N.2       1 <0>        -0.0471
     16 C10         4.9076    0.0040   -4.7351 C.ar      1 <0>        -0.0406
     17 C11         4.9798    0.0153   -3.3419 C.ar      1 <0>        -0.0921
     18 C12         5.7816    0.9384   -2.7029 C.ar      1 <0>        -0.1039
     19 C13         6.5134    1.8527   -3.4415 C.ar      1 <0>        -0.0183
     20 C14         6.4453    1.8464   -4.8245 C.ar      1 <0>        -0.1053
     21 C15         5.6517    0.9239   -5.4744 C.ar      1 <0>        -0.0705
     22 Cl1         7.5198    3.0117   -2.6307 Cl        1 <0>        -0.0550
     23 H1         -1.3570    0.1298   -0.4182 H         1 <0>         0.1332
     24 H2         -1.5348   -1.6341   -0.2593 H         1 <0>         0.1336
     25 H3         -1.6645   -0.5934    1.1789 H         1 <0>         0.1367
     26 H4          1.1486   -3.2308   -1.0617 H         1 <0>         0.1579
     27 H5          2.1094   -3.5351   -3.3071 H         1 <0>         0.1480
     28 H6          2.5540    0.7010   -3.6810 H         1 <0>         0.1442
     29 H7          1.5836    0.9956   -1.4385 H         1 <0>         0.1577
     30 H8          4.9902   -1.1654   -7.3811 H         1 <0>         0.1966
     31 H9          4.4088   -0.6969   -2.7647 H         1 <0>         0.1342
     32 H10         5.8382    0.9481   -1.6244 H         1 <0>         0.1434
     33 H11         7.0177    2.5623   -5.3956 H         1 <0>         0.1452
     34 H12         5.6027    0.9169   -6.5532 H         1 <0>         0.1444
@<TRIPOS>BOND
     1    1    2 1
     2    1   23 1
     3    1   24 1
     4    1   25 1
     5    2    3 2
     6    2    4 2
     7    2    5 1
     8    5   10 ar
     9    5    6 ar
    10    6    7 ar
    11    6   26 1
    12    7    8 ar
    13    7   27 1
    14    8    9 ar
    15    8   11 1
    16    9   10 ar
    17    9   28 1
    18   10   29 1
    19   11   15 1
    20   11   12 1
    21   12   13 2
    22   12   16 1
    23   13   14 1
    24   13   30 1
    25   14   15 2
    26   16   21 ar
    27   16   17 ar
    28   17   18 ar
    29   17   31 1
    30   18   19 ar
    31   18   32 1
    32   19   20 ar
    33   19   22 1
    34   20   21 ar
    35   20   33 1
    36   21   34 1
@<TRIPOS>MOLECULE
CHEMBL75896
   37    38     0     0     0
SMALL
USER_CHARGES

@<TRIPOS>ATOM
      1 C1         -0.0953    1.1986    0.0369 C.ar      1 <0>        -0.1936
      2 C2          0.9814    2.0729    0.0198 C.ar      1 <0>        -0.0439
      3 C3          2.2733    1.5915   -0.0225 C.ar      1 <0>        -0.1127
      4 C4          2.5059    0.2217   -0.0484 C.ar      1 <0>         0.2968
      5 C5          1.4169   -0.6685   -0.0312 C.ar      1 <0>        -0.2729
      6 C6          0.1119   -0.1617    0.0118 C.ar      1 <0>        -0.0462
      7 C7          1.6463   -2.1167   -0.0586 C.2       1 <0>         0.4149
      8 O1          2.7761   -2.5533    0.0100 O.2       1 <0>        -0.4851
      9 C8          0.4786   -3.0625   -0.1720 C.3       1 <0>        -0.1254
     10 C9          0.1876   -3.3389   -1.6484 C.3       1 <0>        -0.1079
     11 C10        -0.9979   -4.2992   -1.7635 C.3       1 <0>        -0.1159
     12 C11        -0.6607   -5.6129   -1.0555 C.3       1 <0>        -0.1211
     13 C12        -0.3697   -5.3366    0.4209 C.3       1 <0>        -0.1175
     14 C13         0.8158   -4.3763    0.5360 C.3       1 <0>        -0.1068
     15 N1          3.8040   -0.2648   -0.0914 N.pl3     1 <0>        -0.8473
     16 C14         3.4341    2.5523   -0.0412 C.3       1 <0>        -0.1523
     17 C15         3.8609    2.7968   -1.4657 C.2       1 <0>         0.4930
     18 O2          3.2766    2.2423   -2.3809 O.co2     1 <0>        -0.6829
     19 O3          4.7905    3.5492   -1.7029 O.co2     1 <0>        -0.7038
     20 H1         -1.1020    1.5877    0.0747 H         1 <0>         0.1159
     21 H2          0.8069    3.1385    0.0394 H         1 <0>         0.1171
     22 H3         -0.7305   -0.8374    0.0253 H         1 <0>         0.1199
     23 H4         -0.3990   -2.6138    0.2935 H         1 <0>         0.0944
     24 H5         -0.0526   -2.4030   -2.1528 H         1 <0>         0.0723
     25 H6          1.0652   -3.7876   -2.1139 H         1 <0>         0.0666
     26 H7         -1.8755   -3.8505   -1.2980 H         1 <0>         0.0636
     27 H8         -1.2052   -4.4961   -2.8153 H         1 <0>         0.0641
     28 H9         -1.5053   -6.2971   -1.1375 H         1 <0>         0.0597
     29 H10         0.2168   -6.0617   -1.5210 H         1 <0>         0.0616
     30 H11        -1.2473   -4.8879    0.8864 H         1 <0>         0.0616
     31 H12        -0.1295   -6.2725    0.9253 H         1 <0>         0.0615
     32 H13         1.6934   -4.8250    0.0706 H         1 <0>         0.0715
     33 H14         1.0231   -4.1794    1.5879 H         1 <0>         0.0618
     34 H15         4.5491    0.3490   -0.1863 H         1 <0>         0.3972
     35 H16         3.9668   -1.2188   -0.0267 H         1 <0>         0.4078
     36 H17         3.1326    3.4953    0.4147 H         1 <0>         0.0711
     37 H18         4.2666    2.1273    0.5197 H         1 <0>         0.0630
@<TRIPOS>BOND
     1    1    6 ar
     2    1    2 ar
     3    1   20 1
     4    2    3 ar
     5    2   21 1
     6    3    4 ar
     7    3   16 1
     8    4    5 ar
     9    4   15 1
    10    5    6 ar
    11    5    7 1
    12    6   22 1
    13    7    8 2
    14    7    9 1
    15    9   14 1
    16    9   10 1
    17    9   23 1
    18   10   11 1
    19   10   24 1
    20   10   25 1
    21   11   12 1
    22   11   26 1
    23   11   27 1
    24   12   13 1
    25   12   28 1
    26   12   29 1
    27   13   14 1
    28   13   30 1
    29   13   31 1
    30   14   32 1
    31   14   33 1
    32   15   34 1
    33   15   35 1
    34   16   17 1
    35   16   36 1
    36   16   37 1
    37   17   18 2
    38   17   19 1
@<TRIPOS>MOLECULE
CHEMBL19657
   33    35     0     0     0
SMALL
USER_CHARGES

@<TRIPOS>ATOM
      1 C1         -0.0178    1.4608    0.0101 C.3       1 <0>         0.0757
      2 N1          0.0021   -0.0041    0.0020 N.pl3     1 <0>        -0.4848
      3 C2          0.0080   -0.7885   -1.1316 C.ar      1 <0>         0.0916
      4 C3         -0.0010   -0.5003   -2.4924 C.ar      1 <0>        -0.1127
      5 C4          0.0086   -1.5239   -3.4131 C.ar      1 <0>        -0.1225
      6 C5          0.0274   -2.8526   -2.9963 C.ar      1 <0>         0.0748
      7 C6          0.0371   -3.1595   -1.6506 C.ar      1 <0>        -0.0965
      8 C7          0.0288   -2.1292   -0.7073 C.ar      1 <0>        -0.0861
      9 C8          0.0388   -2.0885    0.7551 C.2       1 <0>        -0.1655
     10 C9          0.0235   -0.7959    1.1201 C.2       1 <0>         0.0874
     11 C10         0.0143   -0.2958    2.5454 C.3       1 <0>        -0.0600
     12 C11         1.0805   -1.0380    3.3535 C.3       1 <0>        -0.1134
     13 C12         0.4815   -2.3070    3.9539 C.3       1 <0>        -0.1209
     14 C13        -0.5694   -2.8975    3.0170 C.3       1 <0>        -0.1244
     15 C14         0.0776   -3.2728    1.6860 C.3       1 <0>        -0.0433
     16 O1          0.0359   -3.8517   -3.9188 O.3       1 <0>        -0.4980
     17 H1          1.0048    1.8381    0.0023 H         1 <0>         0.0692
     18 H2         -0.5450    1.8219   -0.8730 H         1 <0>         0.0813
     19 H3         -0.5280    1.8123    0.9069 H         1 <0>         0.0830
     20 H4         -0.0158    0.5265   -2.8268 H         1 <0>         0.1225
     21 H5          0.0010   -1.2943   -4.4684 H         1 <0>         0.1312
     22 H6          0.0514   -4.1903   -1.3287 H         1 <0>         0.1276
     23 H7          0.2284    0.7730    2.5568 H         1 <0>         0.0705
     24 H8         -0.9661   -0.4746    2.9869 H         1 <0>         0.0903
     25 H9          1.9114   -1.3035    2.6998 H         1 <0>         0.0673
     26 H10         1.4422   -0.3936    4.1547 H         1 <0>         0.0695
     27 H11         1.2738   -3.0386    4.1125 H         1 <0>         0.0652
     28 H12         0.0169   -2.0677    4.9104 H         1 <0>         0.0627
     29 H13        -1.0026   -3.7881    3.4723 H         1 <0>         0.0658
     30 H14        -1.3537   -2.1614    2.8408 H         1 <0>         0.0685
     31 H15        -0.4588   -4.1076    1.2348 H         1 <0>         0.0692
     32 H16         1.1136   -3.5604    1.8653 H         1 <0>         0.0689
     33 H17         0.9216   -4.1294   -4.1897 H         1 <0>         0.3860
@<TRIPOS>BOND
     1    1    2 1
     2    1   17 1
     3    1   18 1
     4    1   19 1
     5    2   10 1
     6    2    3 1
     7    3    8 ar
     8    3    4 ar
     9    4    5 ar
    10    4   20 1
    11    5    6 ar
    12    5   21 1
    13    6    7 ar
    14    6   16 1
    15    7    8 ar
    16    7   22 1
    17    8    9 1
    18    9   15 1
    19    9   10 2
    20   10   11 1
    21   11   12 1
    22   11   23 1
    23   11   24 1
    24   12   13 1
    25   12   25 1
    26   12   26 1
    27   13   14 1
    28   13   27 1
    29   13   28 1
    30   14   15 1
    31   14   29 1
    32   14   30 1
    33   15   31 1
    34   15   32 1
    35   16   33 1
@<TRIPOS>MOLECULE
CHEMBL142038
   37    40     0     0     0
SMALL
USER_CHARGES

@<TRIPOS>ATOM
      1 C1         -0.0169    1.3920    0.0097 C.ar      1 <0>        -0.0849
      2 C2          1.1695    2.0951    0.0021 C.ar      1 <0>        -0.1493
      3 C3          2.3789    1.4186   -0.0135 C.ar      1 <0>         0.1014
      4 C4          2.4037    0.0330   -0.0216 C.ar      1 <0>        -0.1486
      5 C5          1.2234   -0.6804   -0.0142 C.ar      1 <0>        -0.0666
      6 C6          0.0021   -0.0041    0.0020 C.ar      1 <0>        -0.0303
      7 C7         -1.2658   -0.7630    0.0105 C.2       1 <0>         0.0795
      8 C8         -1.5454   -1.8444    0.7921 C.2       1 <0>        -0.1611
      9 C9         -2.8493   -2.2600    0.4903 C.2       1 <0>        -0.1611
     10 C10        -3.3373   -1.4231   -0.4689 C.2       1 <0>         0.0795
     11 N1         -2.3679   -0.4977   -0.7625 N.pl3     1 <0>        -0.5436
     12 H1         -2.4473    0.2210   -1.4089 H         1 <0>         0.4188
     13 C11        -4.6797   -1.4968   -1.0822 C.ar      1 <0>        -0.0303
     14 C12        -5.1975   -2.7278   -1.4894 C.ar      1 <0>        -0.0666
     15 C13        -6.4511   -2.7907   -2.0608 C.ar      1 <0>        -0.1485
     16 C14        -7.1966   -1.6349   -2.2311 C.ar      1 <0>         0.1013
     17 C15        -6.6874   -0.4102   -1.8292 C.ar      1 <0>        -0.1493
     18 C16        -5.4374   -0.3363   -1.2514 C.ar      1 <0>        -0.0849
     19 F1         -8.4240   -1.7022   -2.7914 F         1 <0>        -0.1372
     20 C17        -3.1944   -3.4647    1.3441 C.3       1 <0>        -0.0461
     21 C18        -1.8095   -4.0543    1.7223 C.3       1 <0>        -0.1184
     22 C19        -0.9702   -2.7562    1.8585 C.3       1 <0>        -0.0461
     23 F2          3.5381    2.1124   -0.0213 F         1 <0>        -0.1372
     24 H2         -0.9587    1.9202    0.0260 H         1 <0>         0.1304
     25 H3          1.1561    3.1750    0.0081 H         1 <0>         0.1386
     26 H4          3.3490   -0.4891   -0.0342 H         1 <0>         0.1406
     27 H5          1.2439   -1.7602   -0.0213 H         1 <0>         0.1379
     28 H6         -4.6172   -3.6291   -1.3574 H         1 <0>         0.1379
     29 H7         -6.8525   -3.7423   -2.3764 H         1 <0>         0.1406
     30 H8         -7.2726    0.4874   -1.9646 H         1 <0>         0.1386
     31 H9         -5.0435    0.6180   -0.9342 H         1 <0>         0.1303
     32 H10        -3.7375   -3.1581    2.2380 H         1 <0>         0.0759
     33 H11        -3.7749   -4.1873    0.7706 H         1 <0>         0.0670
     34 H12        -1.8565   -4.5938    2.6682 H         1 <0>         0.0765
     35 H13        -1.4224   -4.6913    0.9270 H         1 <0>         0.0724
     36 H14         0.0829   -2.9580    1.6629 H         1 <0>         0.0670
     37 H15        -1.1002   -2.3182    2.8481 H         1 <0>         0.0758
@<TRIPOS>BOND
     1    1    6 ar
     2    1    2 ar
     3    1   24 1
     4    2    3 ar
     5    2   25 1
     6    3    4 ar
     7    3   23 1
     8    4    5 ar
     9    4   26 1
    10    5    6 ar
    11    5   27 1
    12    6    7 1
    13    7   11 1
    14    7    8 2
    15    8   22 1
    16    8    9 1
    17    9   10 2
    18    9   20 1
    19   10   11 1
    20   10   13 1
    21   11   12 1
    22   13   18 ar
    23   13   14 ar
    24   14   15 ar
    25   14   28 1
    26   15   16 ar
    27   15   29 1
    28   16   17 ar
    29   16   19 1
    30   17   18 ar
    31   17   30 1
    32   18   31 1
    33   20   21 1
    34   20   32 1
    35   20   33 1
    36   21   22 1
    37   21   34 1
    38   21   35 1
    39   22   36 1
    40   22   37 1
@<TRIPOS>MOLECULE
CHEMBL148545
   48    50     0     0     0
SMALL
USER_CHARGES

@<TRIPOS>ATOM
      1 C1          0.7210    1.5193    4.6716 C.3       1 <0>        -0.1204
      2 C2          1.2677    0.2216    4.1349 C.ar      1 <0>        -0.0332
      3 C3          2.6148   -0.0651    4.2612 C.ar      1 <0>        -0.1491
      4 C4          3.1210   -1.2544    3.7703 C.ar      1 <0>        -0.0645
      5 C5          2.2816   -2.1616    3.1511 C.ar      1 <0>        -0.1041
      6 C6          0.9276   -1.8773    3.0227 C.ar      1 <0>         0.2583
      7 C7          0.4214   -0.6829    3.5222 C.ar      1 <0>        -0.0711
      8 Cl1        -1.2705   -0.3249    3.3702 Cl        1 <0>        -0.0552
      9 N1          0.0752   -2.7927    2.3969 N.pl3     1 <0>        -0.6835
     10 C8          0.4371   -4.1309    2.3093 C.ar      1 <0>         0.2240
     11 C9          0.8081   -4.6756    1.0858 C.ar      1 <0>        -0.1288
     12 C10         1.1671   -6.0049    1.0015 C.ar      1 <0>        -0.0844
     13 C11         1.1612   -6.8067    2.1323 C.ar      1 <0>        -0.1308
     14 C12         0.7965   -6.2848    3.3538 C.ar      1 <0>        -0.0760
     15 C13         0.4357   -4.9388    3.4572 C.ar      1 <0>        -0.1470
     16 C14         0.0498   -4.3724    4.7625 C.2       1 <0>         0.5565
     17 O1         -0.3657   -3.2316    4.8314 O.2       1 <0>        -0.5125
     18 N2          0.1574   -5.1190    5.8794 N.am      1 <0>        -0.7263
     19 C15        -0.2262   -4.5562    7.1765 C.3       1 <0>         0.1274
     20 C16        -0.0087   -5.6028    8.2710 C.3       1 <0>         0.0460
     21 O2          1.3861   -5.8929    8.3823 O.3       1 <0>        -0.3122
     22 C17         1.7530   -6.8099    9.3158 C.ar      1 <0>         0.1272
     23 C18         0.7898   -7.4222   10.1045 C.ar      1 <0>        -0.2098
     24 C19         1.1653   -8.3543   11.0524 C.ar      1 <0>        -0.0802
     25 C20         2.4999   -8.6768   11.2158 C.ar      1 <0>        -0.1573
     26 C21         3.4618   -8.0677   10.4314 C.ar      1 <0>        -0.0800
     27 C22         3.0909   -7.1394    9.4778 C.ar      1 <0>        -0.1511
     28 Cl2         2.9185   -3.6541    2.5341 Cl        1 <0>        -0.0531
     29 H1          0.4128    1.3827    5.7082 H         1 <0>         0.0783
     30 H2          1.4925    2.2876    4.6202 H         1 <0>         0.0732
     31 H3         -0.1379    1.8263    4.0747 H         1 <0>         0.0743
     32 H4          3.2730    0.6419    4.7441 H         1 <0>         0.1363
     33 H5          4.1735   -1.4747    3.8704 H         1 <0>         0.1358
     34 H6         -0.7686   -2.4930    2.0240 H         1 <0>         0.4150
     35 H7          0.8149   -4.0578    0.2000 H         1 <0>         0.1324
     36 H8          1.4542   -6.4237    0.0483 H         1 <0>         0.1301
     37 H9          1.4436   -7.8462    2.0551 H         1 <0>         0.1294
     38 H10         0.7934   -6.9142    4.2314 H         1 <0>         0.1250
     39 H11         0.4887   -6.0290    5.8245 H         1 <0>         0.4007
     40 H12         0.3849   -3.6783    7.3866 H         1 <0>         0.0805
     41 H13        -1.2775   -4.2695    7.1516 H         1 <0>         0.0911
     42 H14        -0.3764   -5.2164    9.2215 H         1 <0>         0.0815
     43 H15        -0.5499   -6.5138    8.0154 H         1 <0>         0.0705
     44 H16        -0.2526   -7.1701    9.9777 H         1 <0>         0.1268
     45 H17         0.4159   -8.8313   11.6666 H         1 <0>         0.1251
     46 H18         2.7915   -9.4056   11.9576 H         1 <0>         0.1245
     47 H19         4.5036   -8.3210   10.5611 H         1 <0>         0.1299
     48 H20         3.8422   -6.6671    8.8623 H         1 <0>         0.1304
@<TRIPOS>BOND
     1    1    2 1
     2    1   29 1
     3    1   30 1
     4    1   31 1
     5    2    7 ar
     6    2    3 ar
     7    3    4 ar
     8    3   32 1
     9    4    5 ar
    10    4   33 1
    11    5    6 ar
    12    5   28 1
    13    6    7 ar
    14    6    9 1
    15    7    8 1
    16    9   10 1
    17    9   34 1
    18   10   15 ar
    19   10   11 ar
    20   11   12 ar
    21   11   35 1
    22   12   13 ar
    23   12   36 1
    24   13   14 ar
    25   13   37 1
    26   14   15 ar
    27   14   38 1
    28   15   16 1
    29   16   17 2
    30   16   18 am
    31   18   19 1
    32   18   39 1
    33   19   20 1
    34   19   40 1
    35   19   41 1
    36   20   21 1
    37   20   42 1
    38   20   43 1
    39   21   22 1
    40   22   27 ar
    41   22   23 ar
    42   23   24 ar
    43   23   44 1
    44   24   25 ar
    45   24   45 1
    46   25   26 ar
    47   25   46 1
    48   26   27 ar
    49   26   47 1
    50   27   48 1
@<TRIPOS>MOLECULE
CHEMBL147016
   47    49     0     0     0
SMALL
USER_CHARGES

@<TRIPOS>ATOM
      1 C1          0.7210    1.5193    4.6716 C.3       1 <0>        -0.1214
      2 C2          1.2677    0.2216    4.1349 C.ar      1 <0>        -0.0319
      3 C3          2.6148   -0.0651    4.2612 C.ar      1 <0>        -0.1470
      4 C4          3.1210   -1.2544    3.7703 C.ar      1 <0>        -0.0648
      5 C5          2.2816   -2.1616    3.1511 C.ar      1 <0>        -0.1040
      6 C6          0.9276   -1.8773    3.0227 C.ar      1 <0>         0.2546
      7 C7          0.4214   -0.6829    3.5222 C.ar      1 <0>        -0.0695
      8 Cl1        -1.2705   -0.3249    3.3702 Cl        1 <0>        -0.0531
      9 N1          0.0752   -2.7927    2.3969 N.pl3     1 <0>        -0.6858
     10 C8          0.4371   -4.1309    2.3093 C.ar      1 <0>         0.2307
     11 C9          0.8081   -4.6756    1.0858 C.ar      1 <0>        -0.1257
     12 C10         1.1671   -6.0049    1.0015 C.ar      1 <0>        -0.0804
     13 C11         1.1612   -6.8067    2.1323 C.ar      1 <0>        -0.1284
     14 C12         0.7965   -6.2848    3.3538 C.ar      1 <0>        -0.0785
     15 C13         0.4357   -4.9388    3.4572 C.ar      1 <0>        -0.1406
     16 C14         0.0498   -4.3724    4.7625 C.2       1 <0>         0.5687
     17 O1         -0.3657   -3.2316    4.8314 O.2       1 <0>        -0.4880
     18 N2          0.1574   -5.1190    5.8794 N.am      1 <0>        -0.5981
     19 O2         -0.2133   -4.5750    7.1331 O.3       1 <0>        -0.1299
     20 C15        -0.0479   -5.4763    8.2296 C.3       1 <0>         0.0667
     21 C16        -0.4701   -4.7966    9.5066 C.ar      1 <0>        -0.0413
     22 C17         0.4530   -4.0825   10.2475 C.ar      1 <0>        -0.0910
     23 C18         0.0657   -3.4591   11.4189 C.ar      1 <0>        -0.0561
     24 C19        -1.2448   -3.5493   11.8492 C.ar      1 <0>        -0.0381
     25 C20        -2.1682   -4.2626   11.1079 C.ar      1 <0>        -0.0563
     26 C21        -1.7818   -4.8825    9.9343 C.ar      1 <0>        -0.0913
     27 N3         -1.6593   -2.8825   13.1040 N.pl3     1 <0>         0.0301
     28 O3         -0.8517   -2.2590   13.7526 O.2       1 <0>        -0.1526
     29 O4         -2.8055   -2.9614   13.4804 O.3       1 <0>        -0.1529
     30 Cl2         2.9185   -3.6541    2.5341 Cl        1 <0>        -0.0544
     31 H1          0.4128    1.3827    5.7082 H         1 <0>         0.0788
     32 H2          1.4925    2.2876    4.6201 H         1 <0>         0.0741
     33 H3         -0.1379    1.8263    4.0747 H         1 <0>         0.0750
     34 H4          3.2730    0.6419    4.7441 H         1 <0>         0.1372
     35 H5          4.1735   -1.4747    3.8704 H         1 <0>         0.1366
     36 H6         -0.7686   -2.4930    2.0240 H         1 <0>         0.4167
     37 H7          0.8149   -4.0578    0.2000 H         1 <0>         0.1360
     38 H8          1.4542   -6.4237    0.0483 H         1 <0>         0.1329
     39 H9          1.4436   -7.8462    2.0551 H         1 <0>         0.1322
     40 H10         0.7934   -6.9142    4.2314 H         1 <0>         0.1251
     41 H11         0.4887   -6.0290    5.8245 H         1 <0>         0.4052
     42 H12        -0.6632   -6.3614    8.0685 H         1 <0>         0.0808
     43 H13         0.9992   -5.7702    8.3035 H         1 <0>         0.0809
     44 H14         1.4769   -4.0120    9.9113 H         1 <0>         0.1509
     45 H15         0.7871   -2.9018   11.9980 H         1 <0>         0.1586
     46 H16        -3.1920   -4.3334   11.4443 H         1 <0>         0.1585
     47 H17        -2.5041   -5.4366    9.3532 H         1 <0>         0.1508
@<TRIPOS>BOND
     1    1    2 1
     2    1   31 1
     3    1   32 1
     4    1   33 1
     5    2    7 ar
     6    2    3 ar
     7    3    4 ar
     8    3   34 1
     9    4    5 ar
    10    4   35 1
    11    5    6 ar
    12    5   30 1
    13    6    7 ar
    14    6    9 1
    15    7    8 1
    16    9   10 1
    17    9   36 1
    18   10   15 ar
    19   10   11 ar
    20   11   12 ar
    21   11   37 1
    22   12   13 ar
    23   12   38 1
    24   13   14 ar
    25   13   39 1
    26   14   15 ar
    27   14   40 1
    28   15   16 1
    29   16   17 2
    30   16   18 am
    31   18   19 1
    32   18   41 1
    33   19   20 1
    34   20   21 1
    35   20   42 1
    36   20   43 1
    37   21   26 ar
    38   21   22 ar
    39   22   23 ar
    40   22   44 1
    41   23   24 ar
    42   23   45 1
    43   24   25 ar
    44   24   27 1
    45   25   26 ar
    46   25   46 1
    47   26   47 1
    48   27   28 2
    49   27   29 1
@<TRIPOS>MOLECULE
CHEMBL292136
   32    33     0     0     0
SMALL
USER_CHARGES

@<TRIPOS>ATOM
      1 C1         -0.0184    1.5028    0.0103 C.3       1 <0>        -0.1097
      2 C2          0.0021   -0.0041    0.0020 C.ar      1 <0>        -0.1033
      3 C3          0.0057   -0.6888   -1.1978 C.ar      1 <0>        -0.1080
      4 C4          0.0244   -2.0713   -1.2061 C.ar      1 <0>        -0.0834
      5 C5          0.0395   -2.7720   -0.0142 C.ar      1 <0>        -0.1082
      6 C6          0.0359   -2.0919    1.1883 C.ar      1 <0>        -0.1031
      7 C7          0.0230   -0.7047    1.1992 C.ar      1 <0>         0.0971
      8 O1          0.0255   -0.0333    2.3808 O.3       1 <0>        -0.4921
      9 C8          0.0523   -2.8562    2.4870 C.3       1 <0>        -0.1098
     10 C9          0.0279   -2.8157   -2.5164 C.3       1 <0>        -0.0736
     11 C10         1.4714   -3.0481   -2.9671 C.3       1 <0>        -0.0308
     12 C11         1.4748   -3.7925   -4.2774 C.2       1 <0>        -0.1361
     13 C12         1.4673   -3.2987   -5.5397 C.2       1 <0>        -0.1618
     14 C13         1.4734   -4.1802   -6.6044 C.2       1 <0>        -0.1552
     15 C14         1.4866   -5.5124   -6.3547 C.2       1 <0>        -0.1756
     16 S1          1.4978   -5.5535   -4.5699 S.3       1 <0>         0.0290
     17 H1          1.0042    1.8801    0.0026 H         1 <0>         0.0724
     18 H2         -0.5455    1.8639   -0.8728 H         1 <0>         0.0661
     19 H3         -0.5286    1.8543    0.9071 H         1 <0>         0.0673
     20 H4         -0.0064   -0.1438   -2.1301 H         1 <0>         0.1258
     21 H5          0.0538   -3.8518   -0.0233 H         1 <0>         0.1258
     22 H6         -0.8570    0.1493    2.7313 H         1 <0>         0.3859
     23 H7          1.0838   -3.0266    2.7953 H         1 <0>         0.0725
     24 H8         -0.4658   -2.2805    3.2539 H         1 <0>         0.0673
     25 H9         -0.4492   -3.8144    2.3510 H         1 <0>         0.0662
     26 H10        -0.4723   -3.7759   -2.3901 H         1 <0>         0.0769
     27 H11        -0.4978   -2.2284   -3.2693 H         1 <0>         0.0778
     28 H12         1.9716   -2.0879   -3.0934 H         1 <0>         0.0886
     29 H13         1.9971   -3.6354   -2.2142 H         1 <0>         0.0815
     30 H14         1.4564   -2.2324   -5.7110 H         1 <0>         0.1322
     31 H15         1.4672   -3.8130   -7.6200 H         1 <0>         0.1332
     32 H16         1.4929   -6.3354   -7.0540 H         1 <0>         0.1850
@<TRIPOS>BOND
     1    1    2 1
     2    1   17 1
     3    1   18 1
     4    1   19 1
     5    2    7 ar
     6    2    3 ar
     7    3    4 ar
     8    3   20 1
     9    4    5 ar
    10    4   10 1
    11    5    6 ar
    12    5   21 1
    13    6    7 ar
    14    6    9 1
    15    7    8 1
    16    8   22 1
    17    9   23 1
    18    9   24 1
    19    9   25 1
    20   10   11 1
    21   10   26 1
    22   10   27 1
    23   11   12 1
    24   11   28 1
    25   11   29 1
    26   12   16 1
    27   12   13 2
    28   13   14 1
    29   13   30 1
    30   14   15 2
    31   14   31 1
    32   15   16 1
    33   15   32 1
@<TRIPOS>MOLECULE
CHEMBL424440
   46    48     0     0     0
SMALL
USER_CHARGES

@<TRIPOS>ATOM
      1 C1         -1.4787    1.0116    0.4831 C.3       1 <0>        -0.1329
      2 C2         -1.2037   -0.4935    0.4881 C.3       1 <0>        -0.0506
      3 C3         -0.5537   -0.9413   -0.8424 C.3       1 <0>         0.0553
      4 O1          0.3704   -1.9581   -0.4200 O.3       1 <0>        -0.2946
      5 C4          0.7608   -1.7090    0.8590 C.ar      1 <0>         0.1394
      6 C5         -0.1260   -0.8445    1.4961 C.ar      1 <0>        -0.1699
      7 C6          0.0700   -0.4677    2.8008 C.ar      1 <0>         0.0051
      8 C7          1.1804   -0.9496    3.5063 C.ar      1 <0>        -0.1312
      9 C8          2.0788   -1.8126    2.8679 C.ar      1 <0>        -0.0558
     10 C9          1.8689   -2.1852    1.5616 C.ar      1 <0>        -0.1024
     11 C10         2.8422   -3.1145    0.8831 C.3       1 <0>        -0.0208
     12 C11         3.9580   -3.4873    1.8613 C.3       1 <0>        -0.1459
     13 C12         2.1106   -4.3820    0.4369 C.3       1 <0>        -0.1401
     14 C13         3.4461   -2.4177   -0.3378 C.3       1 <0>        -0.1410
     15 C14         1.4003   -0.5521    4.9039 C.2       1 <0>         0.0423
     16 C15         1.1789    0.7246    5.2859 C.2       1 <0>        -0.2560
     17 C16         1.1884    1.2698    6.7051 C.3       1 <0>        -0.1190
     18 C17         1.2671    2.7955    6.4649 C.3       1 <0>         0.0524
     19 O2          0.6867    2.9535    5.1589 O.3       1 <0>        -0.3400
     20 C18         0.8958    1.8324    4.4428 C.2       1 <0>         0.5075
     21 O3          0.8453    1.7748    3.2288 O.2       1 <0>        -0.4466
     22 C19        -2.4868   -1.2803    0.7629 C.3       1 <0>        -0.1346
     23 H1         -0.5661    1.5468    0.2205 H         1 <0>         0.0623
     24 H2         -2.2551    1.2367   -0.2480 H         1 <0>         0.0610
     25 H3         -1.8106    1.3236    1.4733 H         1 <0>         0.0622
     26 H4         -1.3023   -1.3564   -1.5172 H         1 <0>         0.1071
     27 H5         -0.0261   -0.1116   -1.3127 H         1 <0>         0.0794
     28 H6         -0.6298    0.1991    3.2826 H         1 <0>         0.1196
     29 H7          2.9390   -2.1867    3.4032 H         1 <0>         0.1380
     30 H8          3.5277   -3.9837    2.7312 H         1 <0>         0.0586
     31 H9          4.6619   -4.1594    1.3706 H         1 <0>         0.0603
     32 H10         4.4792   -2.5843    2.1792 H         1 <0>         0.0580
     33 H11         1.3157   -4.1165   -0.2600 H         1 <0>         0.0643
     34 H12         2.8145   -5.0542   -0.0538 H         1 <0>         0.0572
     35 H13         1.6803   -4.8785    1.3068 H         1 <0>         0.0531
     36 H14         3.9673   -1.5147   -0.0200 H         1 <0>         0.0529
     37 H15         4.1500   -3.0898   -0.8286 H         1 <0>         0.0575
     38 H16         2.6511   -2.1522   -1.0348 H         1 <0>         0.0633
     39 H17         1.7390   -1.2807    5.6256 H         1 <0>         0.1431
     40 H18         0.2702    1.0053    7.2296 H         1 <0>         0.0987
     41 H19         2.0627    0.9164    7.2517 H         1 <0>         0.0991
     42 H20         0.6841    3.3332    7.2126 H         1 <0>         0.1123
     43 H21         2.3037    3.1325    6.4685 H         1 <0>         0.0858
     44 H22        -3.2254   -1.0506   -0.0052 H         1 <0>         0.0642
     45 H23        -2.2683   -2.3480    0.7491 H         1 <0>         0.0597
     46 H24        -2.8809   -1.0026    1.7405 H         1 <0>         0.0615
@<TRIPOS>BOND
     1    1    2 1
     2    1   23 1
     3    1   24 1
     4    1   25 1
     5    2    6 1
     6    2    3 1
     7    2   22 1
     8    3    4 1
     9    3   26 1
    10    3   27 1
    11    4    5 1
    12    5   10 ar
    13    5    6 ar
    14    6    7 ar
    15    7    8 ar
    16    7   28 1
    17    8    9 ar
    18    8   15 1
    19    9   10 ar
    20    9   29 1
    21   10   11 1
    22   11   12 1
    23   11   13 1
    24   11   14 1
    25   12   30 1
    26   12   31 1
    27   12   32 1
    28   13   33 1
    29   13   34 1
    30   13   35 1
    31   14   36 1
    32   14   37 1
    33   14   38 1
    34   15   16 2
    35   15   39 1
    36   16   20 1
    37   16   17 1
    38   17   18 1
    39   17   40 1
    40   17   41 1
    41   18   19 1
    42   18   42 1
    43   18   43 1
    44   19   20 1
    45   20   21 2
    46   22   44 1
    47   22   45 1
    48   22   46 1
@<TRIPOS>MOLECULE
CHEMBL538418
   42    43     0     0     0
SMALL
USER_CHARGES

@<TRIPOS>ATOM
      1 C1         -0.0187    1.5258    0.0104 C.3       1 <0>        -0.1536
      2 C2          0.0021   -0.0041    0.0020 C.3       1 <0>        -0.1206
      3 C3         -1.4333   -0.5336    0.0129 C.3       1 <0>        -0.1335
      4 C4         -1.4126   -2.0635    0.0045 C.3       1 <0>         0.1307
      5 N1         -2.7870   -2.5706    0.0149 N.pl3     1 <0>        -0.6886
      6 C5         -3.0214   -3.9347    0.0098 C.ar      1 <0>         0.5821
      7 N2         -4.2700   -4.3745    0.0139 N.ar      1 <0>        -0.5400
      8 C6         -4.5287   -5.6800    0.0092 C.ar      1 <0>         0.2655
      9 C7         -3.4611   -6.5819   -0.0002 C.ar      1 <0>        -0.2333
     10 C8         -2.1728   -6.0780   -0.0042 C.ar      1 <0>         0.1442
     11 N3         -1.9903   -4.7669   -0.0045 N.ar      1 <0>        -0.5296
     12 C9         -0.9899   -7.0116   -0.0138 C.3       1 <0>         0.5257
     13 F1         -0.6302   -7.2950   -1.3357 F         1 <0>        -0.1634
     14 F2          0.0870   -6.4067    0.6431 F         1 <0>        -0.1584
     15 F3         -1.3284   -8.2000    0.6423 F         1 <0>        -0.1641
     16 C10        -5.9284   -6.1702    0.0144 C.ar      1 <0>        -0.0046
     17 C11        -6.1901   -7.5393    0.0151 C.ar      1 <0>        -0.1086
     18 C12        -7.4946   -7.9897    0.0199 C.ar      1 <0>        -0.0240
     19 C13        -8.5413   -7.0854    0.0234 C.ar      1 <0>        -0.6606
     20 C14        -8.2875   -5.7256    0.0222 C.ar      1 <0>        -0.0215
     21 C15        -6.9870   -5.2637    0.0242 C.ar      1 <0>        -0.0896
     22 S1        -10.2043   -7.6678    0.0289 S.o2      1 <0>         2.7013
     23 O1        -11.0010   -6.6267   -0.5193 O.2       1 <0>        -0.9585
     24 O2        -10.1777   -8.9774   -0.5221 O.2       1 <0>        -0.9559
     25 N4        -10.6611   -7.8297    1.6124 N.pl3     1 <0>        -1.2468
     26 H1          1.0039    1.9031    0.0027 H         1 <0>         0.0577
     27 H2         -0.5459    1.8868   -0.8726 H         1 <0>         0.0550
     28 H3         -0.5289    1.8773    0.9072 H         1 <0>         0.0549
     29 H4          0.5123   -0.3556   -0.8948 H         1 <0>         0.0665
     30 H5          0.5293   -0.3651    0.8851 H         1 <0>         0.0666
     31 H6         -1.9435   -0.1821    0.9097 H         1 <0>         0.0711
     32 H7         -1.9605   -0.1726   -0.8702 H         1 <0>         0.0712
     33 H8         -0.9024   -2.4150   -0.8923 H         1 <0>         0.0718
     34 H9         -0.8854   -2.4246    0.8875 H         1 <0>         0.0724
     35 H10        -3.5327   -1.9503    0.0253 H         1 <0>         0.4191
     36 H11        -3.6378   -7.6473   -0.0038 H         1 <0>         0.1628
     37 H12        -5.3736   -8.2462    0.0117 H         1 <0>         0.1436
     38 H13        -7.6985   -9.0503    0.0205 H         1 <0>         0.1523
     39 H14        -9.1087   -5.0240    0.0246 H         1 <0>         0.1504
     40 H15        -6.7900   -4.2018    0.0285 H         1 <0>         0.1490
     41 H16       -11.5904   -7.7105    1.8637 H         1 <0>         0.4233
     42 H17        -9.9995   -8.0439    2.2886 H         1 <0>         0.4178
@<TRIPOS>BOND
     1    1    2 1
     2    1   26 1
     3    1   27 1
     4    1   28 1
     5    2    3 1
     6    2   29 1
     7    2   30 1
     8    3    4 1
     9    3   31 1
    10    3   32 1
    11    4    5 1
    12    4   33 1
    13    4   34 1
    14    5    6 1
    15    5   35 1
    16    6   11 ar
    17    6    7 ar
    18    7    8 ar
    19    8    9 ar
    20    8   16 1
    21    9   10 ar
    22    9   36 1
    23   10   11 ar
    24   10   12 1
    25   12   13 1
    26   12   14 1
    27   12   15 1
    28   16   21 ar
    29   16   17 ar
    30   17   18 ar
    31   17   37 1
    32   18   19 ar
    33   18   38 1
    34   19   20 ar
    35   19   22 1
    36   20   21 ar
    37   20   39 1
    38   21   40 1
    39   22   23 2
    40   22   24 2
    41   22   25 1
    42   25   41 1
    43   25   42 1
@<TRIPOS>MOLECULE
CHEMBL409023
   30    31     0     0     0
SMALL
USER_CHARGES

@<TRIPOS>ATOM
      1 C1         -0.0165    1.3916    0.0141 C.ar      1 <0>        -0.0592
      2 C2          1.1706    2.0944    0.0085 C.ar      1 <0>        -0.0741
      3 C3          2.3779    1.4188   -0.0065 C.ar      1 <0>        -0.1595
      4 C4          2.4037    0.0354   -0.0158 C.ar      1 <0>        -0.0752
      5 C5          1.2239   -0.6795   -0.0098 C.ar      1 <0>        -0.0904
      6 C6          0.0023   -0.0042    0.0052 C.ar      1 <0>        -0.1004
      7 C7         -1.2657   -0.7637    0.0117 C.2       1 <0>         0.5466
      8 O1         -2.3280   -0.1729    0.0248 O.2       1 <0>        -0.4626
      9 N1         -1.2441   -2.1112    0.0031 N.am      1 <0>        -0.6547
     10 C8         -2.4355   -2.8289    0.1164 C.ar      1 <0>         0.2960
     11 C9         -2.3961   -4.2154    0.2129 C.ar      1 <0>        -0.1496
     12 C10        -3.5823   -4.9175    0.3249 C.ar      1 <0>        -0.1291
     13 C11        -4.7786   -4.2020    0.3365 C.ar      1 <0>         0.1432
     14 C12        -4.7402   -2.8190    0.2362 C.ar      1 <0>         0.0591
     15 N2         -3.5894   -2.1817    0.1362 N.ar      1 <0>        -0.4339
     16 N3         -6.0030   -4.8705    0.4476 N.pl3     1 <0>        -0.8714
     17 C13         3.6708    2.1931   -0.0131 C.3       1 <0>         0.5071
     18 F1          4.0825    2.4245    1.3038 F         1 <0>        -0.1732
     19 F2          4.6519    1.4570   -0.6859 F         1 <0>        -0.1744
     20 F3          3.4781    3.4168   -0.6632 F         1 <0>        -0.1737
     21 H1         -0.9583    1.9201    0.0299 H         1 <0>         0.1516
     22 H2          1.1574    3.1743    0.0154 H         1 <0>         0.1463
     23 H3          3.3495   -0.4858   -0.0282 H         1 <0>         0.1451
     24 H4          1.2453   -1.7593   -0.0175 H         1 <0>         0.1386
     25 H5         -0.4004   -2.5823   -0.0819 H         1 <0>         0.4148
     26 H6         -1.4508   -4.7375    0.2003 H         1 <0>         0.1369
     27 H7         -3.5818   -5.9948    0.4011 H         1 <0>         0.1376
     28 H8         -5.6626   -2.2572    0.2445 H         1 <0>         0.1565
     29 H9         -6.0228   -5.8378    0.5171 H         1 <0>         0.4001
     30 H10        -6.8318   -4.3666    0.4551 H         1 <0>         0.4020
@<TRIPOS>BOND
     1    1    6 ar
     2    1    2 ar
     3    1   21 1
     4    2    3 ar
     5    2   22 1
     6    3    4 ar
     7    3   17 1
     8    4    5 ar
     9    4   23 1
    10    5    6 ar
    11    5   24 1
    12    6    7 1
    13    7    8 2
    14    7    9 am
    15    9   10 1
    16    9   25 1
    17   10   15 ar
    18   10   11 ar
    19   11   12 ar
    20   11   26 1
    21   12   13 ar
    22   12   27 1
    23   13   14 ar
    24   13   16 1
    25   14   15 ar
    26   14   28 1
    27   16   29 1
    28   16   30 1
    29   17   18 1
    30   17   19 1
    31   17   20 1
@<TRIPOS>MOLECULE
CHEMBL8846
   46    47     0     0     0
SMALL
USER_CHARGES

@<TRIPOS>ATOM
      1 C1         -1.2921    1.1949   -0.9881 C.3       1 <0>        -0.1498
      2 C2         -0.8293   -0.2246   -0.6540 C.3       1 <0>        -0.0210
      3 C3         -0.4003   -0.2891    0.8132 C.3       1 <0>        -0.1426
      4 C4         -1.9790   -1.2055   -0.8927 C.3       1 <0>        -0.1426
      5 C5          0.3366   -0.5933   -1.5349 C.ar      1 <0>        -0.1005
      6 C6          0.8155    0.3114   -2.4558 C.ar      1 <0>        -0.0524
      7 C7          1.8968   -0.0315   -3.2723 C.ar      1 <0>        -0.1629
      8 C8          2.4875   -1.2922   -3.1502 C.ar      1 <0>        -0.0741
      9 C9          2.0026   -2.1911   -2.2268 C.ar      1 <0>        -0.0981
     10 C10         0.9306   -1.8441   -1.4127 C.ar      1 <0>         0.1504
     11 O1          0.4591   -2.7310   -0.4999 O.3       1 <0>        -0.4825
     12 C11         2.6385   -3.5510   -2.0947 C.3       1 <0>        -0.0210
     13 C12         3.7908   -3.6744   -3.0936 C.3       1 <0>        -0.1518
     14 C13         3.1751   -3.7271   -0.6727 C.3       1 <0>        -0.1434
     15 C14         1.5951   -4.6322   -2.3836 C.3       1 <0>        -0.1431
     16 C15         2.4133    0.9355   -4.2616 C.2       1 <0>         0.4819
     17 O2          2.1911    2.1248   -4.1240 O.2       1 <0>        -0.4409
     18 C16         3.1928    0.4642   -5.4082 C.2       1 <0>        -0.2828
     19 C17         3.8698    1.2031   -6.3698 C.2       1 <0>        -0.0640
     20 C18         4.5195    0.4726   -7.3342 C.2       1 <0>        -0.1877
     21 C19         4.4603   -0.8823   -7.2875 C.2       1 <0>        -0.2289
     22 S1          3.5267   -1.2077   -5.9292 S.3       1 <0>         0.2245
     23 H1         -0.4730    1.8936   -0.8181 H         1 <0>         0.0607
     24 H2         -1.5978    1.2407   -2.0334 H         1 <0>         0.0588
     25 H3         -2.1354    1.4615   -0.3510 H         1 <0>         0.0621
     26 H4         -1.2435   -0.0224    1.4504 H         1 <0>         0.0565
     27 H5         -0.0705   -1.3003    1.0513 H         1 <0>         0.0752
     28 H6          0.4189    0.4097    0.9833 H         1 <0>         0.0522
     29 H7         -2.2847   -1.1596   -1.9379 H         1 <0>         0.0553
     30 H8         -1.6493   -2.2167   -0.6546 H         1 <0>         0.0581
     31 H9         -2.8223   -0.9388   -0.2555 H         1 <0>         0.0629
     32 H10         0.3561    1.2845   -2.5473 H         1 <0>         0.1427
     33 H11         3.3230   -1.5610   -3.7796 H         1 <0>         0.1379
     34 H12        -0.2358   -3.3120   -0.8386 H         1 <0>         0.3872
     35 H13         4.5341   -2.9042   -2.8878 H         1 <0>         0.0595
     36 H14         4.2507   -4.6580   -2.9980 H         1 <0>         0.0641
     37 H15         3.4085   -3.5489   -4.1066 H         1 <0>         0.0595
     38 H16         2.3542   -3.6392    0.0389 H         1 <0>         0.0759
     39 H17         3.6351   -4.7107   -0.5772 H         1 <0>         0.0568
     40 H18         3.9184   -2.9569   -0.4669 H         1 <0>         0.0521
     41 H19         1.2128   -4.5067   -3.3966 H         1 <0>         0.0563
     42 H20         2.0551   -5.6157   -2.2880 H         1 <0>         0.0634
     43 H21         0.7742   -4.5443   -1.6719 H         1 <0>         0.0582
     44 H22         3.8840    2.2829   -6.3599 H         1 <0>         0.1499
     45 H23         5.0697    0.9697   -8.1194 H         1 <0>         0.1387
     46 H24         4.9133   -1.5899   -7.9661 H         1 <0>         0.1893
@<TRIPOS>BOND
     1    1    2 1
     2    1   23 1
     3    1   24 1
     4    1   25 1
     5    2    3 1
     6    2    4 1
     7    2    5 1
     8    3   26 1
     9    3   27 1
    10    3   28 1
    11    4   29 1
    12    4   30 1
    13    4   31 1
    14    5   10 ar
    15    5    6 ar
    16    6    7 ar
    17    6   32 1
    18    7    8 ar
    19    7   16 1
    20    8    9 ar
    21    8   33 1
    22    9   10 ar
    23    9   12 1
    24   10   11 1
    25   11   34 1
    26   12   13 1
    27   12   14 1
    28   12   15 1
    29   13   35 1
    30   13   36 1
    31   13   37 1
    32   14   38 1
    33   14   39 1
    34   14   40 1
    35   15   41 1
    36   15   42 1
    37   15   43 1
    38   16   17 2
    39   16   18 1
    40   18   22 1
    41   18   19 2
    42   19   20 1
    43   19   44 1
    44   20   21 2
    45   20   45 1
    46   21   22 1
    47   21   46 1
@<TRIPOS>MOLECULE
CHEMBL1094096
   42    44     0     0     0
SMALL
USER_CHARGES

@<TRIPOS>ATOM
      1 C1         -0.0155    1.3801    0.0124 C.ar      1 <0>        -0.1111
      2 C2          0.4780    0.8189    1.1753 C.ar      1 <0>        -0.1184
      3 C3          1.6839    0.1433    1.1591 C.ar      1 <0>        -0.0973
      4 C4          2.3960    0.0285   -0.0201 C.ar      1 <0>        -0.1266
      5 C5          1.9021    0.5889   -1.1832 C.ar      1 <0>        -0.1179
      6 C6          0.6968    1.2657   -1.1667 C.ar      1 <0>        -0.1178
      7 C7          3.7112   -0.7071   -0.0376 C.3       1 <0>         0.1812
      8 C8          4.0764   -1.0696   -1.4803 C.3       1 <0>        -0.1735
      9 C9          3.0175   -2.0214   -2.0428 C.3       1 <0>         0.1080
     10 H1          2.0506   -1.5186   -2.0628 H         1 <0>         0.0853
     11 O1          2.9339   -3.1824   -1.2138 O.3       1 <0>        -0.3599
     12 C10         2.5496   -2.9095    0.1353 C.3       1 <0>         0.1402
     13 H2          1.5766   -2.4183    0.1439 H         1 <0>         0.0776
     14 C11         3.5898   -1.9934    0.7853 C.3       1 <0>        -0.1318
     15 C12         2.4668   -4.2022    0.9055 C.ar      1 <0>        -0.0683
     16 C13         3.4166   -5.1868    0.7071 C.ar      1 <0>        -0.0831
     17 C14         3.3413   -6.3724    1.4136 C.ar      1 <0>        -0.0922
     18 C15         2.3154   -6.5735    2.3193 C.ar      1 <0>        -0.0853
     19 C16         1.3652   -5.5880    2.5176 C.ar      1 <0>        -0.0908
     20 C17         1.4443   -4.4006    1.8145 C.ar      1 <0>        -0.1002
     21 Br1         2.2114   -8.1956    3.2858 Br        1 <0>        -0.0485
     22 C18         3.4066   -2.4355   -3.4634 C.3       1 <0>        -0.1216
     23 S1          2.0815   -3.4433   -4.1838 S.3       1 <0>         0.0772
     24 C19         2.6786   -3.8389   -5.8123 C.1       1 <0>         0.1691
     25 N1          3.0599   -4.0915   -6.8522 N.1       1 <0>        -0.3777
     26 O2          4.7309    0.1234    0.5213 O.3       1 <0>        -0.5442
     27 H3         -0.9599    1.9040    0.0241 H         1 <0>         0.1243
     28 H4         -0.0784    0.9086    2.0966 H         1 <0>         0.1252
     29 H5          2.0698   -0.2945    2.0678 H         1 <0>         0.1251
     30 H6          2.4586    0.4995   -2.1045 H         1 <0>         0.1263
     31 H7          0.3111    1.7039   -2.0754 H         1 <0>         0.1256
     32 H8          4.1107   -0.1640   -2.0859 H         1 <0>         0.0875
     33 H9          5.0509   -1.5576   -1.4977 H         1 <0>         0.0935
     34 H10         4.5544   -2.5001    0.8137 H         1 <0>         0.0887
     35 H11         3.2760   -1.7484    1.8000 H         1 <0>         0.0886
     36 H12         4.2174   -5.0298   -0.0004 H         1 <0>         0.1372
     37 H13         4.0832   -7.1418    1.2582 H         1 <0>         0.1347
     38 H14         0.5640   -5.7446    3.2247 H         1 <0>         0.1355
     39 H15         0.7049   -3.6295    1.9722 H         1 <0>         0.1327
     40 H16         3.5579   -1.5447   -4.0730 H         1 <0>         0.1130
     41 H17         4.3288   -3.0158   -3.4329 H         1 <0>         0.1086
     42 H18         4.8640    0.9557    0.0473 H         1 <0>         0.3811
@<TRIPOS>BOND
     1    1    6 ar
     2    1    2 ar
     3    1   27 1
     4    2    3 ar
     5    2   28 1
     6    3    4 ar
     7    3   29 1
     8    4    5 ar
     9    4    7 1
    10    5    6 ar
    11    5   30 1
    12    6   31 1
    13    7   14 1
    14    7    8 1
    15    7   26 1
    16    8    9 1
    17    8   32 1
    18    8   33 1
    19    9   10 1
    20    9   11 1
    21    9   22 1
    22   11   12 1
    23   12   13 1
    24   12   14 1
    25   12   15 1
    26   14   34 1
    27   14   35 1
    28   15   20 ar
    29   15   16 ar
    30   16   17 ar
    31   16   36 1
    32   17   18 ar
    33   17   37 1
    34   18   19 ar
    35   18   21 1
    36   19   20 ar
    37   19   38 1
    38   20   39 1
    39   22   23 1
    40   22   40 1
    41   22   41 1
    42   23   24 1
    43   24   25 3
    44   26   42 1
@<TRIPOS>MOLECULE
CHEMBL23378
   41    44     0     0     0
SMALL
USER_CHARGES

@<TRIPOS>ATOM
      1 C1         -0.0225    1.8097    0.0120 C.3       1 <0>        -0.6503
      2 S1          0.0021   -0.0041    0.0020 S.o2      1 <0>         2.4980
      3 O1          0.8352   -0.4880    1.0465 O.2       1 <0>        -0.9350
      4 O2         -1.3147   -0.5105   -0.1678 O.2       1 <0>        -0.9343
      5 C2          0.8454   -0.4373   -1.4831 C.ar      1 <0>        -0.6517
      6 C3          0.1294   -0.6119   -2.6552 C.ar      1 <0>        -0.0183
      7 C4          0.7809   -0.9509   -3.8215 C.ar      1 <0>        -0.1068
      8 C5          2.1716   -1.1186   -3.8186 C.ar      1 <0>        -0.0067
      9 C6          2.8880   -0.9400   -2.6282 C.ar      1 <0>        -0.1142
     10 C7          2.2208   -0.5956   -1.4724 C.ar      1 <0>        -0.0221
     11 C8          2.8737   -1.4798   -5.0550 C.2       1 <0>         0.0173
     12 C9          2.9622   -0.6888   -6.1689 C.2       1 <0>        -0.1320
     13 C10         3.7303   -1.3395   -7.2273 C.2       1 <0>         0.4004
     14 O3          3.9715   -0.8768   -8.3230 O.2       1 <0>        -0.4287
     15 C11         4.1717   -2.6918   -6.7148 C.3       1 <0>        -0.1739
     16 C12         3.6110   -2.7750   -5.2859 C.3       1 <0>        -0.0963
     17 C13         2.3569    0.6523   -6.2859 C.2       1 <0>        -0.0781
     18 C14         2.9826    1.8470   -6.4315 C.2       1 <0>        -0.1140
     19 C15         2.1817    3.0543   -6.5282 C.ar      1 <0>        -0.0889
     20 C16         2.6166    4.3940   -6.6817 C.ar      1 <0>        -0.0731
     21 C17         1.7186    5.4116   -6.7549 C.ar      1 <0>        -0.1216
     22 C18         0.3512    5.1799   -6.6827 C.ar      1 <0>        -0.0926
     23 C19        -0.1136    3.8880   -6.5331 C.ar      1 <0>        -0.0793
     24 C20         0.7858    2.8465   -6.4575 C.ar      1 <0>        -0.1136
     25 S2          0.6285    1.0885   -6.2774 S.3       1 <0>         0.0408
     26 H1          1.0001    2.1870    0.0043 H         1 <0>         0.1319
     27 H2         -0.5497    2.1708   -0.8711 H         1 <0>         0.1323
     28 H3         -0.5327    2.1613    0.9088 H         1 <0>         0.1349
     29 H4         -0.9428   -0.4825   -2.6555 H         1 <0>         0.1483
     30 H5          0.2208   -1.0870   -4.7348 H         1 <0>         0.1354
     31 H6          3.9603   -1.0677   -2.6170 H         1 <0>         0.1388
     32 H7          2.7720   -0.4531   -0.5546 H         1 <0>         0.1482
     33 H8          3.7571   -3.4863   -7.3354 H         1 <0>         0.1161
     34 H9          5.2598   -2.7533   -6.6956 H         1 <0>         0.1157
     35 H10         4.4235   -2.8782   -4.5666 H         1 <0>         0.1061
     36 H11         2.9250   -3.6179   -5.2021 H         1 <0>         0.1062
     37 H12         4.0605    1.8994   -6.4746 H         1 <0>         0.1372
     38 H13         3.6734    4.6090   -6.7408 H         1 <0>         0.1262
     39 H14         2.0767    6.4238   -6.8715 H         1 <0>         0.1292
     40 H15        -0.3439    6.0043   -6.7428 H         1 <0>         0.1359
     41 H16        -1.1748    3.6952   -6.4761 H         1 <0>         0.1323
@<TRIPOS>BOND
     1    1    2 1
     2    1   26 1
     3    1   27 1
     4    1   28 1
     5    2    3 2
     6    2    4 2
     7    2    5 1
     8    5   10 ar
     9    5    6 ar
    10    6    7 ar
    11    6   29 1
    12    7    8 ar
    13    7   30 1
    14    8    9 ar
    15    8   11 1
    16    9   10 ar
    17    9   31 1
    18   10   32 1
    19   11   16 1
    20   11   12 2
    21   12   13 1
    22   12   17 1
    23   13   14 2
    24   13   15 1
    25   15   16 1
    26   15   33 1
    27   15   34 1
    28   16   35 1
    29   16   36 1
    30   17   25 1
    31   17   18 2
    32   18   19 1
    33   18   37 1
    34   19   24 ar
    35   19   20 ar
    36   20   21 ar
    37   20   38 1
    38   21   22 ar
    39   21   39 1
    40   22   23 ar
    41   22   40 1
    42   23   24 ar
    43   23   41 1
    44   24   25 1
@<TRIPOS>MOLECULE
CHEMBL295739
   45    46     0     0     0
SMALL
USER_CHARGES

@<TRIPOS>ATOM
      1 C1         -1.4413    1.0269   -1.1549 C.3       1 <0>        -0.1477
      2 C2         -1.1899   -0.4819   -1.1172 C.3       1 <0>        -0.0187
      3 C3         -0.8735   -0.9104    0.3171 C.3       1 <0>        -0.1408
      4 C4         -2.4381   -1.2193   -1.6063 C.3       1 <0>        -0.1410
      5 C5         -0.0245   -0.8194   -2.0110 C.ar      1 <0>        -0.1005
      6 C6          0.6284    0.1803   -2.6951 C.ar      1 <0>        -0.0858
      7 C7          1.7123   -0.1351   -3.5256 C.ar      1 <0>        -0.0774
      8 C8          2.1248   -1.4684   -3.6541 C.ar      1 <0>        -0.0930
      9 C9          1.4642   -2.4595   -2.9650 C.ar      1 <0>        -0.0906
     10 C10         0.3927   -2.1398   -2.1384 C.ar      1 <0>         0.1246
     11 O1         -0.2518   -3.1211   -1.4571 O.3       1 <0>        -0.4846
     12 C11         1.9062   -3.8937   -3.1025 C.3       1 <0>        -0.0207
     13 C12         3.0985   -3.9706   -4.0583 C.3       1 <0>        -0.1501
     14 C13         2.3161   -4.4347   -1.7313 C.3       1 <0>        -0.1398
     15 C14         0.7528   -4.7319   -3.6575 C.3       1 <0>        -0.1398
     16 C15         2.4118    0.9256   -4.2577 C.2       1 <0>         0.0246
     17 C16         3.5679    0.6465   -4.9218 C.2       1 <0>        -0.1751
     18 C17         4.3264    1.4622   -5.8163 C.2       1 <0>         0.4843
     19 O2          3.9252    2.7176   -6.1184 O.3       1 <0>        -0.5804
     20 N1          5.4080    0.9694   -6.3303 N.2       1 <0>        -0.6231
     21 C18         5.8244   -0.2756   -6.0428 C.2       1 <0>         0.3697
     22 S1          7.2103   -1.1050   -6.6104 S.2       1 <0>        -0.5317
     23 S2          4.5623   -0.8403   -4.9100 S.3       1 <0>        -0.1415
     24 H1         -0.5521    1.5522   -0.8065 H         1 <0>         0.0599
     25 H2         -1.6667    1.3322   -2.1767 H         1 <0>         0.0592
     26 H3         -2.2843    1.2710   -0.5084 H         1 <0>         0.0573
     27 H4         -1.7165   -0.6663    0.9636 H         1 <0>         0.0514
     28 H5         -0.6944   -1.9853    0.3440 H         1 <0>         0.0746
     29 H6          0.0157   -0.3851    0.6655 H         1 <0>         0.0514
     30 H7         -2.6635   -0.9139   -2.6280 H         1 <0>         0.0544
     31 H8         -2.2589   -2.2941   -1.5794 H         1 <0>         0.0578
     32 H9         -3.2810   -0.9751   -0.9598 H         1 <0>         0.0580
     33 H10         0.3058    1.2059   -2.5925 H         1 <0>         0.1349
     34 H11         2.9593   -1.7174   -4.2930 H         1 <0>         0.1570
     35 H12        -0.9915   -3.5145   -1.9400 H         1 <0>         0.3793
     36 H13         3.9202   -3.3734   -3.6630 H         1 <0>         0.0656
     37 H14         3.4182   -5.0079   -4.1577 H         1 <0>         0.0584
     38 H15         2.8064   -3.5851   -5.0352 H         1 <0>         0.0602
     39 H16         1.4668   -4.3799   -1.0504 H         1 <0>         0.0726
     40 H17         2.6358   -5.4720   -1.8307 H         1 <0>         0.0530
     41 H18         3.1379   -3.8376   -1.3359 H         1 <0>         0.0522
     42 H19         0.4608   -4.3465   -4.6343 H         1 <0>         0.0542
     43 H20         1.0725   -5.7692   -3.7569 H         1 <0>         0.0596
     44 H21        -0.0966   -4.6771   -2.9765 H         1 <0>         0.0554
     45 H22         2.0104    1.9282   -4.2702 H         1 <0>         0.1528
@<TRIPOS>BOND
     1    1    2 1
     2    1   24 1
     3    1   25 1
     4    1   26 1
     5    2    3 1
     6    2    4 1
     7    2    5 1
     8    3   27 1
     9    3   28 1
    10    3   29 1
    11    4   30 1
    12    4   31 1
    13    4   32 1
    14    5   10 ar
    15    5    6 ar
    16    6    7 ar
    17    6   33 1
    18    7    8 ar
    19    7   16 1
    20    8    9 ar
    21    8   34 1
    22    9   10 ar
    23    9   12 1
    24   10   11 1
    25   11   35 1
    26   12   13 1
    27   12   14 1
    28   12   15 1
    29   13   36 1
    30   13   37 1
    31   13   38 1
    32   14   39 1
    33   14   40 1
    34   14   41 1
    35   15   42 1
    36   15   43 1
    37   15   44 1
    38   16   17 2
    39   16   45 1
    40   17   23 1
    41   17   18 1
    42   18   19 1
    43   18   20 2
    44   20   21 1
    45   21   22 2
    46   21   23 1
@<TRIPOS>MOLECULE
CHEMBL440683
   50    52     0     0     0
SMALL
USER_CHARGES

@<TRIPOS>ATOM
      1 C1          0.0786    0.7248   -1.5707 C.3       1 <0>        -0.1461
      2 C2          0.2326   -0.7648   -1.2572 C.3       1 <0>        -0.0827
      3 C3          1.2641   -1.3675   -2.1757 C.ar      1 <0>        -0.0894
      4 C4          0.8725   -1.9852   -3.3433 C.ar      1 <0>        -0.1126
      5 C5          1.8130   -2.5439   -4.1974 C.ar      1 <0>        -0.1490
      6 C6          3.1443   -2.4911   -3.8944 C.ar      1 <0>        -0.0817
      7 C7          3.5648   -1.8702   -2.7166 C.ar      1 <0>        -0.0840
      8 C8          2.6141   -1.2965   -1.8498 C.ar      1 <0>         0.0945
      9 N1          3.3043   -0.7553   -0.7871 N.pl3     1 <0>        -0.5822
     10 H1          2.8982   -0.2968   -0.0349 H         1 <0>         0.4111
     11 C9          4.6453   -0.9605   -0.9495 C.2       1 <0>         0.1223
     12 C10         4.8637   -1.6367   -2.0936 C.2       1 <0>        -0.1838
     13 C11         6.2224   -2.0412   -2.6045 C.3       1 <0>        -0.0019
     14 H2          6.3752   -3.1070   -2.4348 H         1 <0>         0.0701
     15 C12         7.2860   -1.2404   -1.8432 C.3       1 <0>        -0.1153
     16 C13         7.0128   -1.3366   -0.3395 C.3       1 <0>        -0.1096
     17 C14         5.7464   -0.5270   -0.0091 C.3       1 <0>         0.0323
     18 C15         6.0088    0.9706   -0.1806 C.3       1 <0>        -0.1138
     19 C16         4.7761    1.7588    0.2667 C.3       1 <0>        -0.1546
     20 C17         5.3336   -0.8185    1.4350 C.3       1 <0>        -0.1791
     21 C18         6.4470   -0.4151    2.3670 C.2       1 <0>         0.4987
     22 O1          7.4894    0.0279    1.9156 O.co2     1 <0>        -0.6825
     23 O2          6.3055   -0.5318    3.5723 O.co2     1 <0>        -0.7041
     24 C19         6.3195   -1.7399   -4.1014 C.3       1 <0>        -0.0877
     25 C20         7.6310   -2.2571   -4.6339 C.2       1 <0>        -0.1404
     26 C21         7.6451   -3.0842   -5.6497 C.2       1 <0>        -0.2087
     27 H3          1.0344    1.2278   -1.4234 H         1 <0>         0.0524
     28 H4         -0.2407    0.8472   -2.6057 H         1 <0>         0.0566
     29 H5         -0.6675    1.1607   -0.9063 H         1 <0>         0.0556
     30 H6          0.5518   -0.8871   -0.2222 H         1 <0>         0.0627
     31 H7         -0.7232   -1.2677   -1.4044 H         1 <0>         0.0719
     32 H8         -0.1763   -2.0355   -3.5961 H         1 <0>         0.1171
     33 H9          1.4899   -3.0247   -5.1090 H         1 <0>         0.1150
     34 H10         3.8696   -2.9290   -4.5641 H         1 <0>         0.1167
     35 H11         8.2732   -1.6483   -2.0604 H         1 <0>         0.0601
     36 H12         7.2469   -0.1964   -2.1539 H         1 <0>         0.0640
     37 H13         6.8751   -2.3816   -0.0615 H         1 <0>         0.0507
     38 H14         7.8579   -0.9228    0.2105 H         1 <0>         0.1134
     39 H15         6.8660    1.2612    0.4268 H         1 <0>         0.1088
     40 H16         6.2168    1.1853   -1.2288 H         1 <0>         0.0488
     41 H17         4.9609    2.8254    0.1391 H         1 <0>         0.0483
     42 H18         3.9177    1.4640   -0.3369 H         1 <0>         0.0386
     43 H19         4.5716    1.5485    1.3165 H         1 <0>         0.0577
     44 H20         4.4341   -0.2523    1.6771 H         1 <0>         0.0537
     45 H21         5.1335   -1.8840    1.5477 H         1 <0>         0.0560
     46 H22         5.4972   -2.2282   -4.6244 H         1 <0>         0.0679
     47 H23         6.2624   -0.6630   -4.2597 H         1 <0>         0.0706
     48 H24         8.5593   -1.9458   -4.1781 H         1 <0>         0.1090
     49 H25         6.7168   -3.3954   -6.1056 H         1 <0>         0.0922
     50 H26         8.5850   -3.4548   -6.0313 H         1 <0>         0.0924
@<TRIPOS>BOND
     1    1    2 1
     2    1   27 1
     3    1   28 1
     4    1   29 1
     5    2    3 1
     6    2   30 1
     7    2   31 1
     8    3    8 ar
     9    3    4 ar
    10    4    5 ar
    11    4   32 1
    12    5    6 ar
    13    5   33 1
    14    6    7 ar
    15    6   34 1
    16    7   12 1
    17    7    8 ar
    18    8    9 1
    19    9   10 1
    20    9   11 1
    21   11   17 1
    22   11   12 2
    23   12   13 1
    24   13   14 1
    25   13   15 1
    26   13   24 1
    27   15   16 1
    28   15   35 1
    29   15   36 1
    30   16   17 1
    31   16   37 1
    32   16   38 1
    33   17   18 1
    34   17   20 1
    35   18   19 1
    36   18   39 1
    37   18   40 1
    38   19   41 1
    39   19   42 1
    40   19   43 1
    41   20   21 1
    42   20   44 1
    43   20   45 1
    44   21   22 2
    45   21   23 1
    46   24   25 1
    47   24   46 1
    48   24   47 1
    49   25   26 2
    50   25   48 1
    51   26   49 1
    52   26   50 1
@<TRIPOS>MOLECULE
CHEMBL84785
   43    45     0     0     0
SMALL
USER_CHARGES

@<TRIPOS>ATOM
      1 C1         -0.0187    1.5258    0.0104 C.3       1 <0>        -0.1439
      2 C2          0.0021   -0.0041    0.0020 C.3       1 <0>         0.0419
      3 N1         -1.3761   -0.5125    0.0124 N.3       1 <0>        -0.3473
      4 C3         -1.4003   -1.9631    0.2430 C.3       1 <0>         0.0176
      5 C4         -2.8500   -2.4350    0.3714 C.3       1 <0>        -0.0749
      6 C5         -2.8749   -3.9231    0.6080 C.ar      1 <0>        -0.0946
      7 C6         -2.9243   -4.8013   -0.4599 C.ar      1 <0>        -0.0892
      8 C7         -2.9743   -6.1503   -0.2174 C.ar      1 <0>        -0.1360
      9 C8         -2.9574   -6.6646    1.1004 C.ar      1 <0>         0.1393
     10 C9         -2.8617   -5.8100    2.1309 C.ar      1 <0>        -0.1466
     11 C10        -2.8431   -4.4247    1.8865 C.ar      1 <0>        -0.0941
     12 C11        -2.6936   -6.1575    3.5608 C.3       1 <0>         0.1934
     13 C12        -2.5356   -7.5448    4.0513 C.ar      1 <0>        -0.0593
     14 C13        -2.4824   -7.6169    5.4593 C.ar      1 <0>        -0.0954
     15 C14        -2.4036   -8.8162    6.1197 C.ar      1 <0>        -0.1197
     16 C15        -2.3866   -9.9885    5.3854 C.ar      1 <0>        -0.1087
     17 C16        -2.4136   -9.9142    4.0155 C.ar      1 <0>        -0.1251
     18 C17        -2.4520   -8.6785    3.3413 C.ar      1 <0>        -0.1048
     19 C18        -2.3020   -8.8699    1.8480 C.3       1 <0>         0.1105
     20 O1         -3.0935   -8.0212    1.0711 O.3       1 <0>        -0.3141
     21 O2         -3.8185   -5.6072    4.2491 O.3       1 <0>        -0.5548
     22 O3         -2.0718   -0.1671   -1.2273 O.3       1 <0>        -0.4321
     23 H1          1.0039    1.9031    0.0027 H         1 <0>         0.0602
     24 H2         -0.5459    1.8868   -0.8726 H         1 <0>         0.0626
     25 H3         -0.5289    1.8773    0.9072 H         1 <0>         0.0624
     26 H4          0.5123   -0.3556   -0.8948 H         1 <0>         0.0477
     27 H5          0.5293   -0.3651    0.8851 H         1 <0>         0.0924
     28 H6         -0.9254   -2.4723   -0.5956 H         1 <0>         0.0501
     29 H7         -0.8603   -2.1941    1.1613 H         1 <0>         0.0924
     30 H8         -3.3250   -1.9258    1.2100 H         1 <0>         0.0862
     31 H9         -3.3900   -2.2040   -0.5468 H         1 <0>         0.0756
     32 H10        -2.9238   -4.4286   -1.4735 H         1 <0>         0.1306
     33 H11        -3.0280   -6.8350   -1.0509 H         1 <0>         0.1337
     34 H12        -2.8075   -3.7410    2.7217 H         1 <0>         0.1266
     35 H13        -1.8260   -5.6014    3.9161 H         1 <0>         0.0650
     36 H14        -2.5040   -6.7021    6.0330 H         1 <0>         0.1263
     37 H15        -2.3552   -8.8450    7.1982 H         1 <0>         0.1286
     38 H16        -2.3522  -10.9467    5.8824 H         1 <0>         0.1288
     39 H17        -2.4051  -10.8276    3.4392 H         1 <0>         0.1262
     40 H18        -1.2576   -8.7071    1.5822 H         1 <0>         0.0652
     41 H19        -2.5595   -9.9007    1.6045 H         1 <0>         0.1194
     42 H20        -3.8970   -4.6467    4.1695 H         1 <0>         0.3776
     43 H21        -2.9853   -0.4818   -1.2665 H         1 <0>         0.3802
@<TRIPOS>BOND
     1    1    2 1
     2    1   23 1
     3    1   24 1
     4    1   25 1
     5    2    3 1
     6    2   26 1
     7    2   27 1
     8    3    4 1
     9    3   22 1
    10    4    5 1
    11    4   28 1
    12    4   29 1
    13    5    6 1
    14    5   30 1
    15    5   31 1
    16    6   11 ar
    17    6    7 ar
    18    7    8 ar
    19    7   32 1
    20    8    9 ar
    21    8   33 1
    22    9   20 1
    23    9   10 ar
    24   10   11 ar
    25   10   12 1
    26   11   34 1
    27   12   13 1
    28   12   21 1
    29   12   35 1
    30   13   18 ar
    31   13   14 ar
    32   14   15 ar
    33   14   36 1
    34   15   16 ar
    35   15   37 1
    36   16   17 ar
    37   16   38 1
    38   17   18 ar
    39   17   39 1
    40   18   19 1
    41   19   20 1
    42   19   40 1
    43   19   41 1
    44   21   42 1
    45   22   43 1
@<TRIPOS>MOLECULE
CHEMBL84785__1
   43    45     0     0     0
SMALL
USER_CHARGES

@<TRIPOS>ATOM
      1 C1         -0.0187    1.5258    0.0104 C.3       1 <0>        -0.1438
      2 C2          0.0021   -0.0041    0.0020 C.3       1 <0>         0.0417
      3 N1         -1.3761   -0.5125    0.0124 N.3       1 <0>        -0.3470
      4 C3         -1.4003   -1.9631    0.2430 C.3       1 <0>         0.0175
      5 C4         -2.8500   -2.4350    0.3714 C.3       1 <0>        -0.0750
      6 C5         -2.8749   -3.9231    0.6080 C.ar      1 <0>        -0.0935
      7 C6         -2.9243   -4.8013   -0.4599 C.ar      1 <0>        -0.0901
      8 C7         -2.9743   -6.1503   -0.2174 C.ar      1 <0>        -0.1344
      9 C8         -2.9574   -6.6646    1.1004 C.ar      1 <0>         0.1364
     10 C9         -2.8617   -5.8100    2.1309 C.ar      1 <0>        -0.1459
     11 C10        -2.8431   -4.4247    1.8865 C.ar      1 <0>        -0.0943
     12 C11        -2.6936   -6.1575    3.5608 C.3       1 <0>         0.1916
     13 C12        -2.5356   -7.5448    4.0513 C.ar      1 <0>        -0.0554
     14 C13        -2.4824   -7.6169    5.4593 C.ar      1 <0>        -0.0981
     15 C14        -2.4036   -8.8162    6.1197 C.ar      1 <0>        -0.1196
     16 C15        -2.3866   -9.9885    5.3854 C.ar      1 <0>        -0.1082
     17 C16        -2.4136   -9.9142    4.0155 C.ar      1 <0>        -0.1253
     18 C17        -2.4520   -8.6785    3.3413 C.ar      1 <0>        -0.1035
     19 C18        -2.3020   -8.8699    1.8480 C.3       1 <0>         0.1106
     20 O1         -3.0935   -8.0212    1.0711 O.3       1 <0>        -0.3146
     21 O2         -1.5562   -5.4284    4.0266 O.3       1 <0>        -0.5574
     22 O3         -2.0718   -0.1671   -1.2273 O.3       1 <0>        -0.4324
     23 H1          1.0039    1.9031    0.0027 H         1 <0>         0.0602
     24 H2         -0.5459    1.8868   -0.8726 H         1 <0>         0.0624
     25 H3         -0.5289    1.8773    0.9072 H         1 <0>         0.0623
     26 H4          0.5123   -0.3556   -0.8948 H         1 <0>         0.0477
     27 H5          0.5293   -0.3651    0.8851 H         1 <0>         0.0928
     28 H6         -0.9254   -2.4723   -0.5956 H         1 <0>         0.0500
     29 H7         -0.8603   -2.1941    1.1613 H         1 <0>         0.0934
     30 H8         -3.3250   -1.9258    1.2100 H         1 <0>         0.0860
     31 H9         -3.3900   -2.2040   -0.5468 H         1 <0>         0.0755
     32 H10        -2.9238   -4.4286   -1.4735 H         1 <0>         0.1307
     33 H11        -3.0280   -6.8350   -1.0509 H         1 <0>         0.1338
     34 H12        -2.8075   -3.7410    2.7217 H         1 <0>         0.1265
     35 H13        -3.5516   -5.7378    4.0858 H         1 <0>         0.0681
     36 H14        -2.5040   -6.7021    6.0330 H         1 <0>         0.1260
     37 H15        -2.3559   -8.8451    7.1982 H         1 <0>         0.1289
     38 H16        -2.3522  -10.9467    5.8824 H         1 <0>         0.1291
     39 H17        -2.4051  -10.8276    3.4392 H         1 <0>         0.1263
     40 H18        -1.2576   -8.7071    1.5822 H         1 <0>         0.0655
     41 H19        -2.5595   -9.9007    1.6045 H         1 <0>         0.1192
     42 H20        -1.6451   -4.4687    3.9480 H         1 <0>         0.3763
     43 H21        -2.9853   -0.4818   -1.2665 H         1 <0>         0.3799
@<TRIPOS>BOND
     1    1    2 1
     2    1   23 1
     3    1   24 1
     4    1   25 1
     5    2    3 1
     6    2   26 1
     7    2   27 1
     8    3    4 1
     9    3   22 1
    10    4    5 1
    11    4   28 1
    12    4   29 1
    13    5    6 1
    14    5   30 1
    15    5   31 1
    16    6   11 ar
    17    6    7 ar
    18    7    8 ar
    19    7   32 1
    20    8    9 ar
    21    8   33 1
    22    9   20 1
    23    9   10 ar
    24   10   11 ar
    25   10   12 1
    26   11   34 1
    27   12   13 1
    28   12   21 1
    29   12   35 1
    30   13   18 ar
    31   13   14 ar
    32   14   15 ar
    33   14   36 1
    34   15   16 ar
    35   15   37 1
    36   16   17 ar
    37   16   38 1
    38   17   18 ar
    39   17   39 1
    40   18   19 1
    41   19   20 1
    42   19   40 1
    43   19   41 1
    44   21   42 1
    45   22   43 1
@<TRIPOS>MOLECULE
CHEMBL149032
   33    35     0     0     0
SMALL
USER_CHARGES

@<TRIPOS>ATOM
      1 C1         -0.0187    1.5258    0.0104 C.3       1 <0>        -0.1495
      2 C2          0.0021   -0.0041    0.0020 C.3       1 <0>        -0.0635
      3 C3          0.7421   -0.5109    1.2415 C.3       1 <0>         0.1429
      4 N1          0.7619   -1.9757    1.2335 N.pl3     1 <0>        -0.5777
      5 C4         -0.2848   -2.6731    1.8462 C.ar      1 <0>         0.1897
      6 C5         -0.8488   -2.1983    3.0200 C.ar      1 <0>        -0.1503
      7 C6         -1.8828   -2.8946    3.6213 C.ar      1 <0>        -0.0840
      8 C7         -2.3595   -4.0635    3.0596 C.ar      1 <0>        -0.1352
      9 C8         -1.8032   -4.5471    1.8865 C.ar      1 <0>        -0.0621
     10 C9         -0.7709   -3.8554    1.2823 C.ar      1 <0>        -0.1440
     11 S1         -0.0412   -4.4465   -0.2131 S.3       1 <0>         0.0056
     12 C10         1.6045   -3.8156   -0.1046 C.ar      1 <0>        -0.1333
     13 C11         1.8242   -2.6377    0.6083 C.ar      1 <0>         0.2036
     14 C12         3.1117   -2.1316    0.6948 C.ar      1 <0>        -0.1423
     15 C13         4.1578   -2.7932    0.0756 C.ar      1 <0>        -0.0822
     16 C14         3.9290   -3.9583   -0.6310 C.ar      1 <0>        -0.1337
     17 C15         2.6550   -4.4722   -0.7165 C.ar      1 <0>        -0.0627
     18 S2          0.8511   -0.5891   -1.4904 S.3       1 <0>        -0.2193
     19 H1          1.0039    1.9031    0.0027 H         1 <0>         0.0745
     20 H2         -0.5459    1.8868   -0.8726 H         1 <0>         0.0585
     21 H3         -0.5289    1.8773    0.9072 H         1 <0>         0.0706
     22 H4         -1.0205   -0.3814    0.0098 H         1 <0>         0.0904
     23 H5          1.7647   -0.1336    1.2338 H         1 <0>         0.0946
     24 H6          0.2319   -0.1594    2.1383 H         1 <0>         0.0983
     25 H7         -0.4813   -1.2857    3.4654 H         1 <0>         0.1284
     26 H8         -2.3198   -2.5219    4.5359 H         1 <0>         0.1293
     27 H9         -3.1662   -4.6010    3.5357 H         1 <0>         0.1303
     28 H10        -2.1747   -5.4607    1.4464 H         1 <0>         0.1332
     29 H11         3.2985   -1.2212    1.2450 H         1 <0>         0.1259
     30 H12         5.1597   -2.3958    0.1447 H         1 <0>         0.1279
     31 H13         4.7510   -4.4684   -1.1110 H         1 <0>         0.1288
     32 H14         2.4773   -5.3829   -1.2692 H         1 <0>         0.1305
     33 H15         0.1180   -0.0867   -2.5000 H         1 <0>         0.0769
@<TRIPOS>BOND
     1    1    2 1
     2    1   19 1
     3    1   20 1
     4    1   21 1
     5    2    3 1
     6    2   18 1
     7    2   22 1
     8    3    4 1
     9    3   23 1
    10    3   24 1
    11    4   13 1
    12    4    5 1
    13    5   10 ar
    14    5    6 ar
    15    6    7 ar
    16    6   25 1
    17    7    8 ar
    18    7   26 1
    19    8    9 ar
    20    8   27 1
    21    9   10 ar
    22    9   28 1
    23   10   11 1
    24   11   12 1
    25   12   17 ar
    26   12   13 ar
    27   13   14 ar
    28   14   15 ar
    29   14   29 1
    30   15   16 ar
    31   15   30 1
    32   16   17 ar
    33   16   31 1
    34   17   32 1
    35   18   33 1
@<TRIPOS>MOLECULE
CHEMBL149032__1
   33    35     0     0     0
SMALL
USER_CHARGES

@<TRIPOS>ATOM
      1 C1         -0.0187    1.5258    0.0104 C.3       1 <0>        -0.1495
      2 C2          0.0021   -0.0041    0.0020 C.3       1 <0>        -0.0635
      3 C3          0.7182   -0.4975   -1.2568 C.3       1 <0>         0.1429
      4 N1          0.7381   -1.9623   -1.2648 N.pl3     1 <0>        -0.5777
      5 C4          1.8092   -2.6309   -0.6623 C.ar      1 <0>         0.2031
      6 C5          3.0954   -2.1240   -0.7623 C.ar      1 <0>        -0.1422
      7 C6          4.1502   -2.7920   -0.1650 C.ar      1 <0>        -0.0823
      8 C7          3.9314   -3.9643    0.5327 C.ar      1 <0>        -0.1342
      9 C8          2.6499   -4.4798    0.6392 C.ar      1 <0>        -0.0629
     10 C9          1.5935   -3.8166    0.0449 C.ar      1 <0>        -0.1329
     11 S1         -0.0511   -4.4487    0.1626 S.3       1 <0>         0.0054
     12 C10        -0.7953   -3.8414   -1.3191 C.ar      1 <0>        -0.1442
     13 C11        -0.3174   -2.6531   -1.8699 C.ar      1 <0>         0.1902
     14 C12        -0.8986   -2.1655   -3.0300 C.ar      1 <0>        -0.1503
     15 C13        -1.9410   -2.8555   -3.6241 C.ar      1 <0>        -0.0839
     16 C14        -2.4091   -4.0309   -3.0685 C.ar      1 <0>        -0.1348
     17 C15        -1.8336   -4.5265   -1.9207 C.ar      1 <0>        -0.0619
     18 S2          0.8794   -0.6050    1.4716 S.3       1 <0>        -0.2193
     19 H1          1.0039    1.9031    0.0027 H         1 <0>         0.0745
     20 H2         -0.5459    1.8868   -0.8726 H         1 <0>         0.0706
     21 H3         -0.5289    1.8773    0.9072 H         1 <0>         0.0585
     22 H4         -1.0205   -0.3814    0.0098 H         1 <0>         0.0904
     23 H5          0.1910   -0.1364   -2.1398 H         1 <0>         0.0984
     24 H6          1.7408   -0.1202   -1.2645 H         1 <0>         0.0946
     25 H7          3.2745   -1.2085   -1.3064 H         1 <0>         0.1260
     26 H8          5.1511   -2.3943   -0.2451 H         1 <0>         0.1280
     27 H9          4.7603   -4.4795    0.9953 H         1 <0>         0.1288
     28 H10         2.4774   -5.3962    1.1841 H         1 <0>         0.1312
     29 H11        -0.5385   -1.2473   -3.4700 H         1 <0>         0.1283
     30 H12        -2.3917   -2.4726   -4.5277 H         1 <0>         0.1292
     31 H13        -3.2227   -4.5632   -3.5387 H         1 <0>         0.1303
     32 H14        -2.2005   -5.4451   -1.4872 H         1 <0>         0.1324
     33 H15         0.1657   -0.1135    2.5003 H         1 <0>         0.0768
@<TRIPOS>BOND
     1    1    2 1
     2    1   19 1
     3    1   20 1
     4    1   21 1
     5    2    3 1
     6    2   18 1
     7    2   22 1
     8    3    4 1
     9    3   23 1
    10    3   24 1
    11    4   13 1
    12    4    5 1
    13    5   10 ar
    14    5    6 ar
    15    6    7 ar
    16    6   25 1
    17    7    8 ar
    18    7   26 1
    19    8    9 ar
    20    8   27 1
    21    9   10 ar
    22    9   28 1
    23   10   11 1
    24   11   12 1
    25   12   17 ar
    26   12   13 ar
    27   13   14 ar
    28   14   15 ar
    29   14   29 1
    30   15   16 ar
    31   15   30 1
    32   16   17 ar
    33   16   31 1
    34   17   32 1
    35   18   33 1
@<TRIPOS>MOLECULE
CHEMBL139721
   39    43     0     0     0
SMALL
USER_CHARGES

@<TRIPOS>ATOM
      1 C1         -0.0169    1.3920    0.0097 C.ar      1 <0>        -0.0839
      2 C2          1.1695    2.0951    0.0021 C.ar      1 <0>        -0.1497
      3 C3          2.3789    1.4186   -0.0135 C.ar      1 <0>         0.1020
      4 C4          2.4037    0.0330   -0.0216 C.ar      1 <0>        -0.1490
      5 C5          1.2234   -0.6804   -0.0142 C.ar      1 <0>        -0.0651
      6 C6          0.0021   -0.0041    0.0020 C.ar      1 <0>        -0.0317
      7 C7         -1.2658   -0.7630    0.0105 C.2       1 <0>         0.0924
      8 C8         -1.5432   -1.8365    0.7864 C.2       1 <0>        -0.1612
      9 C9         -2.8547   -2.2554    0.4829 C.2       1 <0>        -0.1612
     10 C10        -3.3403   -1.4252   -0.4692 C.2       1 <0>         0.0923
     11 N1         -2.3700   -0.4971   -0.7640 N.pl3     1 <0>        -0.5536
     12 H1         -2.4501    0.2220   -1.4101 H         1 <0>         0.4187
     13 C11        -4.6829   -1.5000   -1.0817 C.ar      1 <0>        -0.0316
     14 C12        -5.2000   -2.7315   -1.4883 C.ar      1 <0>        -0.0652
     15 C13        -6.4539   -2.7955   -2.0590 C.ar      1 <0>        -0.1489
     16 C14        -7.2003   -1.6403   -2.2291 C.ar      1 <0>         0.1019
     17 C15        -6.6919   -0.4151   -1.8279 C.ar      1 <0>        -0.1497
     18 C16        -5.4415   -0.3401   -1.2508 C.ar      1 <0>        -0.0840
     19 F1         -8.4281   -1.7087   -2.7887 F         1 <0>        -0.1372
     20 C17        -3.1313   -3.4659    1.3754 C.3       1 <0>         0.0046
     21 C18        -2.3582   -3.0270    2.6765 C.3       1 <0>        -0.1099
     22 C19        -1.0295   -2.7946    1.8618 C.3       1 <0>         0.0047
     23 C20        -0.9354   -4.1470    1.1401 C.2       1 <0>        -0.1585
     24 C21        -2.1633   -4.5392    0.8559 C.2       1 <0>        -0.1595
     25 F2          3.5381    2.1124   -0.0213 F         1 <0>        -0.1372
     26 H2         -0.9587    1.9202    0.0260 H         1 <0>         0.1305
     27 H3          1.1561    3.1750    0.0081 H         1 <0>         0.1386
     28 H4          3.3490   -0.4891   -0.0342 H         1 <0>         0.1405
     29 H5          1.2439   -1.7602   -0.0213 H         1 <0>         0.1379
     30 H6         -4.6190   -3.6324   -1.3565 H         1 <0>         0.1379
     31 H7         -6.8548   -3.7475   -2.3742 H         1 <0>         0.1405
     32 H8         -7.2778    0.4820   -1.9632 H         1 <0>         0.1386
     33 H9         -5.0482    0.6145   -0.9340 H         1 <0>         0.1304
     34 H10        -4.1746   -3.7624    1.4835 H         1 <0>         0.1008
     35 H11        -2.7523   -2.1095    3.1134 H         1 <0>         0.0784
     36 H12        -2.2708   -3.8306    3.4078 H         1 <0>         0.0840
     37 H13        -0.1557   -2.4689    2.4262 H         1 <0>         0.1009
     38 H14        -0.0266   -4.6815    0.9062 H         1 <0>         0.1307
     39 H15        -2.4383   -5.4522    0.3488 H         1 <0>         0.1308
@<TRIPOS>BOND
     1    1    6 ar
     2    1    2 ar
     3    1   26 1
     4    2    3 ar
     5    2   27 1
     6    3    4 ar
     7    3   25 1
     8    4    5 ar
     9    4   28 1
    10    5    6 ar
    11    5   29 1
    12    6    7 1
    13    7   11 1
    14    7    8 2
    15    8   22 1
    16    8    9 1
    17    9   10 2
    18    9   20 1
    19   10   11 1
    20   10   13 1
    21   11   12 1
    22   13   18 ar
    23   13   14 ar
    24   14   15 ar
    25   14   30 1
    26   15   16 ar
    27   15   31 1
    28   16   17 ar
    29   16   19 1
    30   17   18 ar
    31   17   32 1
    32   18   33 1
    33   20   24 1
    34   20   21 1
    35   20   34 1
    36   21   22 1
    37   21   35 1
    38   21   36 1
    39   22   23 1
    40   22   37 1
    41   23   24 2
    42   23   38 1
    43   24   39 1
@<TRIPOS>MOLECULE
CHEMBL299794
   32    34     0     0     0
SMALL
USER_CHARGES

@<TRIPOS>ATOM
      1 C1         -0.0256    1.3207   -0.4280 C.ar      1 <0>        -0.1617
      2 C2          1.1537    1.9952   -0.6949 C.ar      1 <0>        -0.0748
      3 C3          2.3703    1.3531   -0.5663 C.ar      1 <0>        -0.1915
      4 C4          2.4166    0.0251   -0.1673 C.ar      1 <0>         0.2230
      5 C5          1.2241   -0.6606    0.1042 C.ar      1 <0>        -0.0352
      6 C6          0.0026   -0.0000   -0.0302 C.ar      1 <0>        -0.0602
      7 C7          1.2608   -2.0746    0.5298 C.2       1 <0>         0.0331
      8 N1          2.2977   -2.8800    0.7236 N.2       1 <0>        -0.2735
      9 N2          2.1520   -4.0773    1.0923 N.2       1 <0>        -0.3453
     10 C8          0.9520   -4.6032    1.3086 C.2       1 <0>         0.2812
     11 S1          0.5039   -6.2284    1.8211 S.3       1 <0>        -0.6579
     12 S2         -0.0805   -3.1880    0.9386 S.3       1 <0>        -0.1313
     13 N3          3.6438   -0.6250   -0.0373 N.pl3     1 <0>        -0.6722
     14 C9          4.8332    0.0988   -0.1512 C.ar      1 <0>         0.1798
     15 C10         4.9499    1.3458    0.4507 C.ar      1 <0>        -0.1256
     16 C11         6.1269    2.0585    0.3361 C.ar      1 <0>        -0.0942
     17 C12         7.1891    1.5325   -0.3767 C.ar      1 <0>        -0.1043
     18 C13         7.0763    0.2922   -0.9773 C.ar      1 <0>        -0.1554
     19 C14         5.9040   -0.4289   -0.8616 C.ar      1 <0>        -0.1049
     20 C15         8.2362   -0.2765   -1.7534 C.3       1 <0>         0.5089
     21 F1          9.3045    0.6263   -1.7239 F         1 <0>        -0.1783
     22 F2          8.6334   -1.4880   -1.1775 F         1 <0>        -0.1747
     23 F3          7.8474   -0.4957   -3.0793 F         1 <0>        -0.1763
     24 H1         -0.9716    1.8321   -0.5273 H         1 <0>         0.1245
     25 H2          1.1224    3.0290   -1.0058 H         1 <0>         0.1239
     26 H3          3.2861    1.8854   -0.7770 H         1 <0>         0.1323
     27 H4         -0.9199   -0.5219    0.1772 H         1 <0>         0.1279
     28 H5          3.6713   -1.5797    0.1321 H         1 <0>         0.4326
     29 H6          4.1207    1.7572    1.0072 H         1 <0>         0.1394
     30 H7          6.2181    3.0279    0.8034 H         1 <0>         0.1369
     31 H8          8.1086    2.0921   -0.4648 H         1 <0>         0.1368
     32 H9          5.8183   -1.3999   -1.3265 H         1 <0>         0.1369
@<TRIPOS>BOND
     1    1    6 ar
     2    1    2 ar
     3    1   24 1
     4    2    3 ar
     5    2   25 1
     6    3    4 ar
     7    3   26 1
     8    4    5 ar
     9    4   13 1
    10    5    6 ar
    11    5    7 1
    12    6   27 1
    13    7   12 1
    14    7    8 2
    15    8    9 1
    16    9   10 2
    17   10   11 1
    18   10   12 1
    19   13   14 1
    20   13   28 1
    21   14   19 ar
    22   14   15 ar
    23   15   16 ar
    24   15   29 1
    25   16   17 ar
    26   16   30 1
    27   17   18 ar
    28   17   31 1
    29   18   19 ar
    30   18   20 1
    31   19   32 1
    32   20   21 1
    33   20   22 1
    34   20   23 1
@<TRIPOS>MOLECULE
CHEMBL561609
   46    48     0     0     0
SMALL
USER_CHARGES

@<TRIPOS>ATOM
      1 C1         -0.0168    1.3896    0.0097 C.ar      1 <0>        -0.0893
      2 C2          1.1704    2.0932    0.0021 C.ar      1 <0>        -0.0268
      3 C3          2.3775    1.4179   -0.0135 C.ar      1 <0>        -0.6607
      4 C4          2.4024    0.0348   -0.0216 C.ar      1 <0>        -0.0189
      5 C5          1.2214   -0.6792   -0.0142 C.ar      1 <0>        -0.1089
      6 C6          0.0021   -0.0041    0.0020 C.ar      1 <0>        -0.0044
      7 C7         -1.2704   -0.7658    0.0106 C.ar      1 <0>         0.2653
      8 C8         -1.2608   -2.1632    0.0088 C.ar      1 <0>        -0.2341
      9 C9         -2.4724   -2.8306    0.0169 C.ar      1 <0>         0.1439
     10 N1         -3.5966   -2.1318    0.0261 N.ar      1 <0>        -0.5279
     11 C10        -3.5761   -0.8068    0.0276 C.ar      1 <0>         0.5843
     12 N2         -2.4390   -0.1290    0.0256 N.ar      1 <0>        -0.5406
     13 N3         -4.7742   -0.1138    0.0369 N.pl3     1 <0>        -0.6845
     14 C11        -6.0435   -0.8454    0.0449 C.3       1 <0>         0.1573
     15 C12        -6.4327   -1.2072   -1.3898 C.3       1 <0>        -0.1288
     16 C13        -7.7582   -1.9712   -1.3814 C.3       1 <0>        -0.1166
     17 C14        -8.8486   -1.0939   -0.7631 C.3       1 <0>        -0.1234
     18 C15        -8.4594   -0.7321    0.6717 C.3       1 <0>        -0.1151
     19 C16        -7.1338    0.0319    0.6633 C.3       1 <0>        -0.1272
     20 C17        -2.5122   -4.3371    0.0149 C.3       1 <0>         0.5253
     21 F1         -2.5145   -4.8054    1.3332 F         1 <0>        -0.1640
     22 F2         -3.6714   -4.7721   -0.6365 F         1 <0>        -0.1581
     23 F3         -1.3877   -4.8324   -0.6540 F         1 <0>        -0.1641
     24 S1          3.8893    2.3229   -0.0236 S.o2      1 <0>         2.7011
     25 O1          4.8719    1.4659   -0.5889 O.2       1 <0>        -0.9583
     26 O2          3.5928    3.6029   -0.5647 O.2       1 <0>        -0.9562
     27 N4          4.3252    2.5659    1.5554 N.pl3     1 <0>        -1.2468
     28 H1         -0.9587    1.9178    0.0260 H         1 <0>         0.1490
     29 H2          1.1569    3.1731    0.0081 H         1 <0>         0.1505
     30 H3          3.3477   -0.4872   -0.0342 H         1 <0>         0.1520
     31 H4          1.2419   -1.7589   -0.0212 H         1 <0>         0.1435
     32 H5         -0.3291   -2.7094    0.0008 H         1 <0>         0.1622
     33 H6         -4.7735    0.8562    0.0381 H         1 <0>         0.4175
     34 H7         -5.9338   -1.7569    0.6325 H         1 <0>         0.0941
     35 H8         -6.5423   -0.2957   -1.9774 H         1 <0>         0.0635
     36 H9         -5.6559   -1.8322   -1.8304 H         1 <0>         0.0666
     37 H10        -8.0355   -2.2290   -2.4036 H         1 <0>         0.0662
     38 H11        -7.6485   -2.8827   -0.7939 H         1 <0>         0.0663
     39 H12        -8.9583   -0.1824   -1.3506 H         1 <0>         0.0631
     40 H13        -9.7929   -1.6382   -0.7571 H         1 <0>         0.0658
     41 H14        -9.2362   -0.1071    1.1122 H         1 <0>         0.0694
     42 H15        -8.3497   -1.6436    1.2593 H         1 <0>         0.0665
     43 H16        -6.8566    0.2897    1.6855 H         1 <0>         0.0699
     44 H17        -7.2435    0.9434    0.0757 H         1 <0>         0.0699
     45 H18         5.2627    2.6347    1.7947 H         1 <0>         0.4234
     46 H19         3.6429    2.6393    2.2410 H         1 <0>         0.4178
@<TRIPOS>BOND
     1    1    6 ar
     2    1    2 ar
     3    1   28 1
     4    2    3 ar
     5    2   29 1
     6    3    4 ar
     7    3   24 1
     8    4    5 ar
     9    4   30 1
    10    5    6 ar
    11    5   31 1
    12    6    7 1
    13    7   12 ar
    14    7    8 ar
    15    8    9 ar
    16    8   32 1
    17    9   10 ar
    18    9   20 1
    19   10   11 ar
    20   11   12 ar
    21   11   13 1
    22   13   14 1
    23   13   33 1
    24   14   19 1
    25   14   15 1
    26   14   34 1
    27   15   16 1
    28   15   35 1
    29   15   36 1
    30   16   17 1
    31   16   37 1
    32   16   38 1
    33   17   18 1
    34   17   39 1
    35   17   40 1
    36   18   19 1
    37   18   41 1
    38   18   42 1
    39   19   43 1
    40   19   44 1
    41   20   21 1
    42   20   22 1
    43   20   23 1
    44   24   25 2
    45   24   26 2
    46   24   27 1
    47   27   45 1
    48   27   46 1
@<TRIPOS>MOLECULE
CHEMBL276052
   44    47     0     0     0
SMALL
USER_CHARGES

@<TRIPOS>ATOM
      1 C1          0.2040    1.6614   -0.2948 C.ar      1 <0>        -0.1220
      2 C2          1.4229    2.3117   -0.2468 C.ar      1 <0>        -0.1316
      3 C3          2.5952    1.5804   -0.2020 C.ar      1 <0>        -0.0879
      4 C4          2.5485    0.1988   -0.2046 C.ar      1 <0>        -0.0993
      5 C5          1.3295   -0.4514   -0.2517 C.ar      1 <0>        -0.0987
      6 C6          0.1573    0.2799   -0.2979 C.ar      1 <0>        -0.1337
      7 C7          3.8264   -0.5984   -0.1568 C.3       1 <0>         0.1417
      8 N1          4.1883   -0.8576    1.2390 N.am      1 <0>        -0.5315
      9 C8          4.9794    0.0399    1.9012 C.2       1 <0>         0.5404
     10 C9          5.3507   -0.1364    3.1886 C.2       1 <0>        -0.9016
     11 C10         4.9190   -1.2826    3.9002 C.ar      1 <0>         0.1398
     12 C11         5.2806   -1.5020    5.2335 C.ar      1 <0>        -0.1965
     13 C12         4.8379   -2.6231    5.8759 C.ar      1 <0>        -0.0620
     14 C13         4.0334   -3.5497    5.2233 C.ar      1 <0>        -0.2004
     15 C14         3.6633   -3.3631    3.9209 C.ar      1 <0>        -0.0254
     16 C15         4.0994   -2.2269    3.2376 C.ar      1 <0>        -0.2203
     17 C16         3.7284   -1.9735    1.8423 C.2       1 <0>         0.5684
     18 O1          3.0207   -2.7585    1.2369 O.2       1 <0>        -0.5486
     19 S1          6.3727    1.0596    3.9821 S.o2      1 <0>         2.6092
     20 O2          7.3951    0.3379    4.6550 O.2       1 <0>        -0.9713
     21 O3          6.6574    2.0583    3.0120 O.2       1 <0>        -0.9231
     22 C17         5.3976    1.8328    5.2295 C.ar      1 <0>        -0.6485
     23 C18         4.5412    2.8655    4.8963 C.ar      1 <0>        -0.0157
     24 C19         3.7762    3.4720    5.8749 C.ar      1 <0>        -0.1455
     25 C20         3.8672    3.0455    7.1867 C.ar      1 <0>        -0.0789
     26 C21         4.7228    2.0122    7.5197 C.ar      1 <0>        -0.1457
     27 C22         5.4847    1.4028    6.5404 C.ar      1 <0>        -0.0298
     28 O4          5.4062    1.1439    1.2437 O.3       1 <0>        -0.6232
     29 H1         -0.7120    2.2328   -0.3253 H         1 <0>         0.1153
     30 H2          1.4594    3.3911   -0.2447 H         1 <0>         0.1186
     31 H3          3.5475    2.0884   -0.1652 H         1 <0>         0.1378
     32 H4          1.2930   -1.5308   -0.2541 H         1 <0>         0.1258
     33 H5         -0.7950   -0.2282   -0.3351 H         1 <0>         0.1165
     34 H6          3.6835   -1.5455   -0.6770 H         1 <0>         0.0897
     35 H7          4.6244   -0.0350   -0.6404 H         1 <0>         0.1029
     36 H8          5.9059   -0.7899    5.7514 H         1 <0>         0.1291
     37 H9          5.1173   -2.7922    6.9053 H         1 <0>         0.1147
     38 H10         3.6964   -4.4289    5.7523 H         1 <0>         0.1140
     39 H11         3.0378   -4.0898    3.4240 H         1 <0>         0.1219
     40 H12         4.4701    3.1987    3.8714 H         1 <0>         0.1395
     41 H13         3.1077    4.2794    5.6147 H         1 <0>         0.1265
     42 H14         3.2700    3.5199    7.9514 H         1 <0>         0.1234
     43 H15         4.7942    1.6792    8.5446 H         1 <0>         0.1267
     44 H16         6.1505    0.5930    6.8000 H         1 <0>         0.1394
@<TRIPOS>BOND
     1    1    6 ar
     2    1    2 ar
     3    1   29 1
     4    2    3 ar
     5    2   30 1
     6    3    4 ar
     7    3   31 1
     8    4    5 ar
     9    4    7 1
    10    5    6 ar
    11    5   32 1
    12    6   33 1
    13    7    8 1
    14    7   34 1
    15    7   35 1
    16    8   17 am
    17    8    9 1
    18    9   10 2
    19    9   28 1
    20   10   11 1
    21   10   19 1
    22   11   16 ar
    23   11   12 ar
    24   12   13 ar
    25   12   36 1
    26   13   14 ar
    27   13   37 1
    28   14   15 ar
    29   14   38 1
    30   15   16 ar
    31   15   39 1
    32   16   17 1
    33   17   18 2
    34   19   20 2
    35   19   21 2
    36   19   22 1
    37   22   27 ar
    38   22   23 ar
    39   23   24 ar
    40   23   40 1
    41   24   25 ar
    42   24   41 1
    43   25   26 ar
    44   25   42 1
    45   26   27 ar
    46   26   43 1
    47   27   44 1
@<TRIPOS>MOLECULE
CHEMBL53610
   35    37     0     0     0
SMALL
USER_CHARGES

@<TRIPOS>ATOM
      1 C1          0.6682    1.4949    4.7283 C.3       1 <0>        -0.1211
      2 C2          1.2271    0.2049    4.1857 C.ar      1 <0>        -0.0317
      3 C3          2.5732   -0.0789    4.3288 C.ar      1 <0>        -0.1450
      4 C4          3.0907   -1.2609    3.8322 C.ar      1 <0>        -0.0681
      5 C5          2.2638   -2.1639    3.1905 C.ar      1 <0>        -0.1035
      6 C6          0.9107   -1.8825    3.0452 C.ar      1 <0>         0.2456
      7 C7          0.3931   -0.6957    3.5507 C.ar      1 <0>        -0.0616
      8 Cl1        -1.2978   -0.3419    3.3785 Cl        1 <0>        -0.0493
      9 N1          0.0711   -2.7933    2.3963 N.pl3     1 <0>        -0.6881
     10 C8          0.4347   -4.1361    2.3087 C.ar      1 <0>         0.2171
     11 C9          0.8050   -4.6799    1.0868 C.ar      1 <0>        -0.1209
     12 C10         1.1644   -6.0110    1.0020 C.ar      1 <0>        -0.0834
     13 C11         1.1586   -6.8113    2.1320 C.ar      1 <0>        -0.1240
     14 C12         0.7933   -6.2873    3.3545 C.ar      1 <0>        -0.0735
     15 C13         0.4334   -4.9427    3.4561 C.ar      1 <0>        -0.0360
     16 C14         0.0473   -4.3742    4.7627 C.2       1 <0>         0.2085
     17 N2         -0.4172   -3.1666    4.9778 N.2       1 <0>        -0.2274
     18 N3         -0.6465   -3.0148    6.2346 N.2       1 <0>        -0.2931
     19 C15        -0.3377   -4.1185    6.8715 C.2       1 <0>         0.4022
     20 O1          0.1016   -5.0038    5.9567 O.3       1 <0>        -0.2250
     21 N4         -0.4481   -4.3359    8.2348 N.pl3     1 <0>        -0.5438
     22 C16        -0.9140   -3.3524    9.0421 C.1       1 <0>         0.4273
     23 N5         -1.3045   -2.5278    9.7190 N.1       1 <0>        -0.3632
     24 Cl2         2.9149   -3.6472    2.5664 Cl        1 <0>        -0.0532
     25 H1          0.3452    1.3460    5.7586 H         1 <0>         0.0798
     26 H2          1.4378    2.2661    4.6966 H         1 <0>         0.0730
     27 H3         -0.1828    1.8056    4.1221 H         1 <0>         0.0754
     28 H4          3.2218    0.6248    4.8293 H         1 <0>         0.1367
     29 H5          4.1424   -1.4789    3.9455 H         1 <0>         0.1361
     30 H6         -0.7642   -2.4906    2.0071 H         1 <0>         0.4182
     31 H7          0.8118   -4.0618    0.2012 H         1 <0>         0.1384
     32 H8          1.4511   -6.4299    0.0488 H         1 <0>         0.1343
     33 H9          1.4412   -7.8509    2.0557 H         1 <0>         0.1344
     34 H10         0.7901   -6.9157    4.2329 H         1 <0>         0.1333
     35 H11        -0.1920   -5.1921    8.6117 H         1 <0>         0.4517
@<TRIPOS>BOND
     1    1    2 1
     2    1   25 1
     3    1   26 1
     4    1   27 1
     5    2    7 ar
     6    2    3 ar
     7    3    4 ar
     8    3   28 1
     9    4    5 ar
    10    4   29 1
    11    5    6 ar
    12    5   24 1
    13    6    7 ar
    14    6    9 1
    15    7    8 1
    16    9   10 1
    17    9   30 1
    18   10   15 ar
    19   10   11 ar
    20   11   12 ar
    21   11   31 1
    22   12   13 ar
    23   12   32 1
    24   13   14 ar
    25   13   33 1
    26   14   15 ar
    27   14   34 1
    28   15   16 1
    29   16   20 1
    30   16   17 2
    31   17   18 1
    32   18   19 2
    33   19   20 1
    34   19   21 1
    35   21   22 1
    36   21   35 1
    37   22   23 3
@<TRIPOS>MOLECULE
CHEMBL274642
   26    27     0     0     0
SMALL
USER_CHARGES

@<TRIPOS>ATOM
      1 C1         -0.0166    1.3763    0.0096 C.ar      1 <0>        -0.0722
      2 C2          1.1707    2.0859    0.0021 C.ar      1 <0>        -0.1293
      3 C3          2.3806    1.4163   -0.0135 C.ar      1 <0>        -0.1396
      4 C4          2.4075    0.0356   -0.0212 C.ar      1 <0>        -0.1202
      5 C5          1.2165   -0.6810   -0.0133 C.ar      1 <0>         0.2468
      6 C6          0.0021   -0.0041    0.0020 C.ar      1 <0>        -0.1620
      7 N1          1.2396   -2.0750   -0.0214 N.pl3     1 <0>        -0.4690
      8 C7          0.0571   -2.9512   -0.0203 C.3       1 <0>         0.0893
      9 C8          0.6608   -4.3698   -0.0317 C.3       1 <0>        -0.1306
     10 C9          2.1536   -4.1293   -0.0381 C.2       1 <0>         0.3283
     11 N2          2.3859   -2.8670   -0.0381 N.2       1 <0>        -0.3280
     12 N3          3.1229   -5.1205   -0.0489 N.pl3     1 <0>        -0.8296
     13 C10         3.6712    2.1942   -0.0227 C.3       1 <0>         0.5086
     14 F1          3.3898    3.5646   -0.0129 F         1 <0>        -0.1765
     15 F2          4.4226    1.8644    1.1104 F         1 <0>        -0.1763
     16 F3          4.3995    1.8759   -1.1740 F         1 <0>        -0.1762
     17 H1         -0.9595    1.9028    0.0260 H         1 <0>         0.1373
     18 H2          1.1529    3.1658    0.0081 H         1 <0>         0.1367
     19 H3          3.3528   -0.4866   -0.0338 H         1 <0>         0.1395
     20 H4         -0.9254   -0.5574    0.0083 H         1 <0>         0.1299
     21 H5         -0.5364   -2.7938    0.8803 H         1 <0>         0.0819
     22 H6         -0.5458   -2.7835   -0.9128 H         1 <0>         0.0816
     23 H7          0.3656   -4.9182    0.8628 H         1 <0>         0.1030
     24 H8          0.3562   -4.9078   -0.9294 H         1 <0>         0.1031
     25 H9          2.8614   -6.0546   -0.0529 H         1 <0>         0.4138
     26 H10         4.0626   -4.8799   -0.0524 H         1 <0>         0.4097
@<TRIPOS>BOND
     1    1    6 ar
     2    1    2 ar
     3    1   17 1
     4    2    3 ar
     5    2   18 1
     6    3    4 ar
     7    3   13 1
     8    4    5 ar
     9    4   19 1
    10    5    6 ar
    11    5    7 1
    12    6   20 1
    13    7   11 1
    14    7    8 1
    15    8    9 1
    16    8   21 1
    17    8   22 1
    18    9   10 1
    19    9   23 1
    20    9   24 1
    21   10   11 2
    22   10   12 1
    23   12   25 1
    24   12   26 1
    25   13   14 1
    26   13   15 1
    27   13   16 1
@<TRIPOS>MOLECULE
CHEMBL9197
   34    36     0     0     0
SMALL
USER_CHARGES

@<TRIPOS>ATOM
      1 C1          0.2000    0.9171   -1.2035 C.3       1 <0>        -0.1546
      2 C2          0.0021   -0.0041    0.0020 C.3       1 <0>         0.1546
      3 C3          0.9833   -1.1780   -0.0839 C.3       1 <0>        -0.1387
      4 C4          0.8449   -2.0237    1.1865 C.3       1 <0>        -0.1448
      5 C5          1.0580   -1.1450    2.3908 C.2       1 <0>         0.5230
      6 O1          1.5120   -1.6278    3.4059 O.2       1 <0>        -0.4955
      7 N1          0.7557    0.1615    2.3619 N.am      1 <0>        -0.6621
      8 C6          0.2610    0.7647    1.2707 C.2       1 <0>         0.5370
      9 O2          0.0177    1.9518    1.3066 O.2       1 <0>        -0.4711
     10 N2         -1.3719   -0.5124    0.0094 N.am      1 <0>        -0.5696
     11 C7         -1.9284   -1.2155   -0.9932 C.2       1 <0>         0.5872
     12 O3         -1.3788   -1.5247   -2.0316 O.2       1 <0>        -0.4594
     13 C8         -3.3162   -1.5491   -0.6223 C.ar      1 <0>        -0.2100
     14 C9         -4.3451   -2.2410   -1.2471 C.ar      1 <0>         0.0169
     15 C10        -5.5647   -2.3809   -0.6121 C.ar      1 <0>        -0.1854
     16 C11        -5.7681   -1.8324    0.6492 C.ar      1 <0>         0.2496
     17 C12        -4.7416   -1.1345    1.2870 C.ar      1 <0>        -0.1198
     18 C13        -3.5186   -0.9913    0.6582 C.ar      1 <0>        -0.0842
     19 C14        -2.2409   -0.3421    1.0222 C.2       1 <0>         0.5671
     20 O4         -2.0148    0.2477    2.0594 O.2       1 <0>        -0.4491
     21 N3         -6.9998   -1.9795    1.2777 N.pl3     1 <0>        -0.8581
     22 H1          1.2231    1.2930   -1.2094 H         1 <0>         0.0859
     23 H2          0.0124    0.3598   -2.1213 H         1 <0>         0.0920
     24 H3         -0.4945    1.7547   -1.1386 H         1 <0>         0.0798
     25 H4          0.7492   -1.7876   -0.9567 H         1 <0>         0.1144
     26 H5          2.0022   -0.7985   -0.1618 H         1 <0>         0.1043
     27 H6         -0.1529   -2.4606    1.2264 H         1 <0>         0.1049
     28 H7          1.5913   -2.8180    1.1785 H         1 <0>         0.1255
     29 H8          0.9006    0.6910    3.1617 H         1 <0>         0.4186
     30 H9         -4.1929   -2.6686   -2.2272 H         1 <0>         0.1444
     31 H10        -6.3646   -2.9192   -1.0987 H         1 <0>         0.1416
     32 H11        -4.9015   -0.7091    2.2667 H         1 <0>         0.1414
     33 H12        -7.7148   -2.4639    0.8361 H         1 <0>         0.4078
     34 H13        -7.1439   -1.5977    2.1576 H         1 <0>         0.4064
@<TRIPOS>BOND
     1    1    2 1
     2    1   22 1
     3    1   23 1
     4    1   24 1
     5    2    8 1
     6    2    3 1
     7    2   10 1
     8    3    4 1
     9    3   25 1
    10    3   26 1
    11    4    5 1
    12    4   27 1
    13    4   28 1
    14    5    6 2
    15    5    7 am
    16    7    8 am
    17    7   29 1
    18    8    9 2
    19   10   19 am
    20   10   11 am
    21   11   12 2
    22   11   13 1
    23   13   18 ar
    24   13   14 ar
    25   14   15 ar
    26   14   30 1
    27   15   16 ar
    28   15   31 1
    29   16   17 ar
    30   16   21 1
    31   17   18 ar
    32   17   32 1
    33   18   19 1
    34   19   20 2
    35   21   33 1
    36   21   34 1
@<TRIPOS>MOLECULE
CHEMBL278336
   40    42     0     0     0
SMALL
USER_CHARGES

@<TRIPOS>ATOM
      1 C1         -0.0225    1.8097    0.0120 C.3       1 <0>        -0.6501
      2 S1          0.0021   -0.0041    0.0020 S.o2      1 <0>         2.4987
      3 O1          0.8352   -0.4880    1.0465 O.2       1 <0>        -0.9348
      4 O2         -1.3147   -0.5105   -0.1678 O.2       1 <0>        -0.9347
      5 C2          0.8454   -0.4373   -1.4831 C.ar      1 <0>        -0.6531
      6 C3          0.1293   -0.6119   -2.6552 C.ar      1 <0>        -0.0203
      7 C4          0.7806   -0.9508   -3.8215 C.ar      1 <0>        -0.1125
      8 C5          2.1717   -1.1182   -3.8188 C.ar      1 <0>        -0.0032
      9 C6          2.8882   -0.9391   -2.6281 C.ar      1 <0>        -0.1161
     10 C7          2.2209   -0.5956   -1.4723 C.ar      1 <0>        -0.0214
     11 C8          2.8735   -1.4792   -5.0546 C.2       1 <0>         0.0111
     12 C9          2.9620   -0.6871   -6.1710 C.2       1 <0>        -0.0944
     13 C10         3.7312   -1.3401   -7.2291 C.2       1 <0>         0.4003
     14 O3          3.9732   -0.8791   -8.3252 O.2       1 <0>        -0.4302
     15 C11         4.1720   -2.6917   -6.7145 C.3       1 <0>        -0.1733
     16 C12         3.6112   -2.7741   -5.2857 C.3       1 <0>        -0.0955
     17 C13         2.3751    0.6141   -6.2857 C.1       1 <0>        -0.1094
     18 C14         1.8939    1.6808   -6.3797 C.1       1 <0>        -0.0983
     19 C15         1.3070    2.9820   -6.4944 C.ar      1 <0>         0.0095
     20 C16         0.5918    3.5268   -5.4240 C.ar      1 <0>        -0.0936
     21 C17         0.0299    4.7806   -5.5418 C.ar      1 <0>        -0.1186
     22 C18         0.1726    5.4992   -6.7159 C.ar      1 <0>        -0.1074
     23 C19         0.8789    4.9663   -7.7801 C.ar      1 <0>        -0.1183
     24 C20         1.4514    3.7161   -7.6752 C.ar      1 <0>        -0.0930
     25 H1          1.0001    2.1870    0.0043 H         1 <0>         0.1321
     26 H2         -0.5497    2.1708   -0.8711 H         1 <0>         0.1321
     27 H3         -0.5327    2.1613    0.9088 H         1 <0>         0.1352
     28 H4         -0.9429   -0.4824   -2.6554 H         1 <0>         0.1478
     29 H5          0.2204   -1.0872   -4.7347 H         1 <0>         0.1364
     30 H6          3.9607   -1.0662   -2.6170 H         1 <0>         0.1396
     31 H7          2.7720   -0.4531   -0.5545 H         1 <0>         0.1487
     32 H8          3.7577   -3.4868   -7.3344 H         1 <0>         0.1168
     33 H9          5.2601   -2.7533   -6.6949 H         1 <0>         0.1163
     34 H10         4.4237   -2.8770   -4.5664 H         1 <0>         0.1062
     35 H11         2.9254   -3.6172   -5.2016 H         1 <0>         0.1063
     36 H12         0.4793    2.9670   -4.5073 H         1 <0>         0.1269
     37 H13        -0.5233    5.2027   -4.7158 H         1 <0>         0.1299
     38 H14        -0.2697    6.4806   -6.8023 H         1 <0>         0.1276
     39 H15         0.9857    5.5328   -8.6933 H         1 <0>         0.1297
     40 H16         2.0063    3.3034   -8.5048 H         1 <0>         0.1268
@<TRIPOS>BOND
     1    1    2 1
     2    1   25 1
     3    1   26 1
     4    1   27 1
     5    2    3 2
     6    2    4 2
     7    2    5 1
     8    5   10 ar
     9    5    6 ar
    10    6    7 ar
    11    6   28 1
    12    7    8 ar
    13    7   29 1
    14    8    9 ar
    15    8   11 1
    16    9   10 ar
    17    9   30 1
    18   10   31 1
    19   11   16 1
    20   11   12 2
    21   12   13 1
    22   12   17 1
    23   13   14 2
    24   13   15 1
    25   15   16 1
    26   15   32 1
    27   15   33 1
    28   16   34 1
    29   16   35 1
    30   17   18 3
    31   18   19 1
    32   19   24 ar
    33   19   20 ar
    34   20   21 ar
    35   20   36 1
    36   21   22 ar
    37   21   37 1
    38   22   23 ar
    39   22   38 1
    40   23   24 ar
    41   23   39 1
    42   24   40 1
@<TRIPOS>MOLECULE
CHEMBL8562
   48    49     0     0     0
SMALL
USER_CHARGES

@<TRIPOS>ATOM
      1 C1          0.0231    1.4797    0.0401 C.3       1 <0>        -0.1487
      2 C2          0.0737   -0.0494    0.0316 C.3       1 <0>        -0.0214
      3 C3          0.8387   -0.5412    1.2620 C.3       1 <0>        -0.1426
      4 C4         -1.3508   -0.6069    0.0603 C.3       1 <0>        -0.1426
      5 C5          0.7730   -0.5220   -1.2168 C.ar      1 <0>        -0.0948
      6 C6          1.2507    0.3949   -2.1256 C.ar      1 <0>        -0.0822
      7 C7          1.9002   -0.0455   -3.2850 C.ar      1 <0>        -0.0909
      8 C8          2.0603   -1.4173   -3.5136 C.ar      1 <0>        -0.0971
      9 C9          1.5789   -2.3259   -2.5984 C.ar      1 <0>        -0.0961
     10 C10         0.9396   -1.8831   -1.4459 C.ar      1 <0>         0.1362
     11 O1          0.4716   -2.7830   -0.5439 O.3       1 <0>        -0.4839
     12 C11         1.7504   -3.8030   -2.8432 C.3       1 <0>        -0.0209
     13 C12         2.4853   -4.0184   -4.1678 C.3       1 <0>        -0.1497
     14 C13         2.5641   -4.4178   -1.7027 C.3       1 <0>        -0.1433
     15 C14         0.3761   -4.4722   -2.9077 C.3       1 <0>        -0.1425
     16 C15         2.4118    0.9289   -4.2588 C.2       1 <0>         0.0319
     17 C16         2.5775    0.5697   -5.5505 C.2       1 <0>        -0.2448
     18 C17         2.1562   -0.7402   -6.1972 C.3       1 <0>        -0.1256
     19 C18         2.2464   -0.4010   -7.7033 C.3       1 <0>         0.0516
     20 O2          3.2148    0.6611   -7.7441 O.3       1 <0>        -0.3359
     21 C19         3.1753    1.3414   -6.5827 C.2       1 <0>         0.5156
     22 O3          3.6006    2.4715   -6.4351 O.2       1 <0>        -0.4599
     23 H1          1.0380    1.8769    0.0197 H         1 <0>         0.0596
     24 H2         -0.5219    1.8301   -0.8364 H         1 <0>         0.0584
     25 H3         -0.4827    1.8216    0.9431 H         1 <0>         0.0615
     26 H4          0.3329   -0.1994    2.1650 H         1 <0>         0.0558
     27 H5          0.8747   -1.6306    1.2560 H         1 <0>         0.0750
     28 H6          1.8536   -0.1440    1.2415 H         1 <0>         0.0518
     29 H7         -1.8959   -0.2566   -0.8162 H         1 <0>         0.0546
     30 H8         -1.3148   -1.6963    0.0543 H         1 <0>         0.0580
     31 H9         -1.8567   -0.2651    0.9633 H         1 <0>         0.0622
     32 H10         1.1244    1.4521   -1.9447 H         1 <0>         0.1365
     33 H11         2.5603   -1.7622   -4.4066 H         1 <0>         0.1444
     34 H12        -0.4381   -3.0670   -0.7074 H         1 <0>         0.3848
     35 H13         3.4644   -3.5416   -4.1218 H         1 <0>         0.0585
     36 H14         2.6094   -5.0868   -4.3448 H         1 <0>         0.0628
     37 H15         1.9056   -3.5804   -4.9803 H         1 <0>         0.0579
     38 H16         2.0405   -4.2643   -0.7590 H         1 <0>         0.0757
     39 H17         2.6882   -5.4861   -1.8797 H         1 <0>         0.0559
     40 H18         3.5432   -3.9410   -1.6567 H         1 <0>         0.0516
     41 H19        -0.2036   -4.0342   -3.7203 H         1 <0>         0.0547
     42 H20         0.5002   -5.5406   -3.0848 H         1 <0>         0.0624
     43 H21        -0.1474   -4.3187   -1.9641 H         1 <0>         0.0580
     44 H22         2.6553    1.9323   -3.9419 H         1 <0>         0.1435
     45 H23         2.8468   -1.5423   -5.9370 H         1 <0>         0.0996
     46 H24         1.1356   -1.0015   -5.9177 H         1 <0>         0.1028
     47 H25         2.5966   -1.2628   -8.2714 H         1 <0>         0.1139
     48 H26         1.2825   -0.0573   -8.0787 H         1 <0>         0.0879
@<TRIPOS>BOND
     1    1    2 1
     2    1   23 1
     3    1   24 1
     4    1   25 1
     5    2    3 1
     6    2    4 1
     7    2    5 1
     8    3   26 1
     9    3   27 1
    10    3   28 1
    11    4   29 1
    12    4   30 1
    13    4   31 1
    14    5   10 ar
    15    5    6 ar
    16    6    7 ar
    17    6   32 1
    18    7    8 ar
    19    7   16 1
    20    8    9 ar
    21    8   33 1
    22    9   10 ar
    23    9   12 1
    24   10   11 1
    25   11   34 1
    26   12   13 1
    27   12   14 1
    28   12   15 1
    29   13   35 1
    30   13   36 1
    31   13   37 1
    32   14   38 1
    33   14   39 1
    34   14   40 1
    35   15   41 1
    36   15   42 1
    37   15   43 1
    38   16   17 2
    39   16   44 1
    40   17   21 1
    41   17   18 1
    42   18   19 1
    43   18   45 1
    44   18   46 1
    45   19   20 1
    46   19   47 1
    47   19   48 1
    48   20   21 1
    49   21   22 2
@<TRIPOS>MOLECULE
CHEMBL42011
   38    41     0     0     0
SMALL
USER_CHARGES

@<TRIPOS>ATOM
      1 C1         -0.0225    1.8097    0.0120 C.3       1 <0>        -0.1462
      2 S1          0.0021   -0.0041    0.0020 S.3       1 <0>        -0.1119
      3 C2          0.8767   -0.4266    1.4721 C.ar      1 <0>        -0.0746
      4 C3          1.3488    0.5769    2.3120 C.ar      1 <0>        -0.1299
      5 C4          2.0334    0.2491    3.4619 C.ar      1 <0>        -0.0706
      6 C5          2.2527   -1.0912    3.7840 C.ar      1 <0>        -0.0315
      7 C6          1.7777   -2.0962    2.9400 C.ar      1 <0>        -0.0843
      8 C7          1.0891   -1.7633    1.7939 C.ar      1 <0>        -0.0986
      9 C8          2.9885   -1.4461    5.0187 C.2       1 <0>        -0.1600
     10 C9          2.4840   -2.1061    6.0783 C.2       1 <0>        -0.0281
     11 C10         1.1173   -2.5031    6.4227 C.ar      1 <0>        -0.0559
     12 C11         0.1093   -2.5878    5.4649 C.ar      1 <0>        -0.0864
     13 C12        -1.1651   -2.9551    5.8473 C.ar      1 <0>        -0.1246
     14 C13        -1.4314   -3.2349    7.1769 C.ar      1 <0>        -0.0937
     15 C14        -0.4328   -3.1565    8.1298 C.ar      1 <0>        -0.1238
     16 C15         0.8526   -2.7978    7.7697 C.ar      1 <0>        -0.0539
     17 C16         1.9292   -2.7508    8.8160 C.3       1 <0>        -0.0825
     18 C17         3.1231   -1.8872    8.4170 C.3       1 <0>        -0.1172
     19 C18         3.6377   -2.3298    7.0458 C.3       1 <0>         0.0923
     20 O1          4.7016   -1.5172    6.5647 O.3       1 <0>        -0.3094
     21 C19         4.4025   -1.1449    5.3007 C.2       1 <0>         0.5096
     22 O2          5.1801   -0.6359    4.5172 O.2       1 <0>        -0.4380
     23 H1          1.0001    2.1870    0.0043 H         1 <0>         0.0859
     24 H2         -0.5497    2.1708   -0.8711 H         1 <0>         0.1115
     25 H3         -0.5327    2.1613    0.9088 H         1 <0>         0.0853
     26 H4          1.1789    1.6138    2.0623 H         1 <0>         0.1286
     27 H5          2.4003    1.0286    4.1132 H         1 <0>         0.1276
     28 H6          1.9461   -3.1339    3.1871 H         1 <0>         0.1321
     29 H7          0.7174   -2.5406    1.1427 H         1 <0>         0.1349
     30 H8          0.3235   -2.3671    4.4296 H         1 <0>         0.1385
     31 H9         -1.9526   -3.0238    5.1114 H         1 <0>         0.1305
     32 H10        -2.4309   -3.5171    7.4731 H         1 <0>         0.1280
     33 H11        -0.6585   -3.3772    9.1627 H         1 <0>         0.1297
     34 H12         1.5036   -2.3546    9.7379 H         1 <0>         0.0929
     35 H13         2.2791   -3.7660    9.0034 H         1 <0>         0.0893
     36 H14         2.8161   -0.8424    8.3699 H         1 <0>         0.0808
     37 H15         3.9161   -1.9998    9.1563 H         1 <0>         0.0944
     38 H16         3.9221   -3.3819    7.0663 H         1 <0>         0.1292
@<TRIPOS>BOND
     1    1    2 1
     2    1   23 1
     3    1   24 1
     4    1   25 1
     5    2    3 1
     6    3    8 ar
     7    3    4 ar
     8    4    5 ar
     9    4   26 1
    10    5    6 ar
    11    5   27 1
    12    6    7 ar
    13    6    9 1
    14    7    8 ar
    15    7   28 1
    16    8   29 1
    17    9   21 1
    18    9   10 2
    19   10   19 1
    20   10   11 1
    21   11   16 ar
    22   11   12 ar
    23   12   13 ar
    24   12   30 1
    25   13   14 ar
    26   13   31 1
    27   14   15 ar
    28   14   32 1
    29   15   16 ar
    30   15   33 1
    31   16   17 1
    32   17   18 1
    33   17   34 1
    34   17   35 1
    35   18   19 1
    36   18   36 1
    37   18   37 1
    38   19   20 1
    39   19   38 1
    40   20   21 1
    41   21   22 2
@<TRIPOS>MOLECULE
CHEMBL42011__1
   38    41     0     0     0
SMALL
USER_CHARGES

@<TRIPOS>ATOM
      1 C1         -0.0225    1.8097    0.0120 C.3       1 <0>        -0.1460
      2 S1          0.0021   -0.0041    0.0020 S.3       1 <0>        -0.1129
      3 C2          0.8767   -0.4266    1.4721 C.ar      1 <0>        -0.0749
      4 C3          1.3488    0.5769    2.3120 C.ar      1 <0>        -0.1315
      5 C4          2.0334    0.2491    3.4619 C.ar      1 <0>        -0.0713
      6 C5          2.2527   -1.0912    3.7840 C.ar      1 <0>        -0.0349
      7 C6          1.7777   -2.0962    2.9400 C.ar      1 <0>        -0.0781
      8 C7          1.0891   -1.7633    1.7939 C.ar      1 <0>        -0.0988
      9 C8          2.9885   -1.4461    5.0187 C.2       1 <0>        -0.1590
     10 C9          2.4840   -2.1061    6.0783 C.2       1 <0>        -0.0280
     11 C10         1.2086   -2.7954    6.2841 C.ar      1 <0>        -0.0567
     12 C11         0.0948   -2.5415    5.4868 C.ar      1 <0>        -0.0783
     13 C12        -1.0794   -3.2296    5.7172 C.ar      1 <0>        -0.1246
     14 C13        -1.1407   -4.1655    6.7356 C.ar      1 <0>        -0.0930
     15 C14        -0.0392   -4.4164    7.5328 C.ar      1 <0>        -0.1238
     16 C15         1.1455   -3.7353    7.3252 C.ar      1 <0>        -0.0535
     17 C16         2.3197   -4.0009    8.2233 C.3       1 <0>        -0.0826
     18 C17         3.6561   -3.5933    7.6082 C.3       1 <0>        -0.1175
     19 C18         3.5784   -2.1401    7.1358 C.3       1 <0>         0.0924
     20 O1          4.7615   -1.7088    6.4738 O.3       1 <0>        -0.3091
     21 C19         4.4025   -1.1449    5.3007 C.2       1 <0>         0.5098
     22 O2          5.1341   -0.4860    4.5878 O.2       1 <0>        -0.4388
     23 H1          1.0001    2.1870    0.0043 H         1 <0>         0.0858
     24 H2         -0.5497    2.1708   -0.8711 H         1 <0>         0.1113
     25 H3         -0.5327    2.1613    0.9088 H         1 <0>         0.0852
     26 H4          1.1789    1.6138    2.0623 H         1 <0>         0.1285
     27 H5          2.4003    1.0286    4.1132 H         1 <0>         0.1282
     28 H6          1.9461   -3.1339    3.1871 H         1 <0>         0.1297
     29 H7          0.7174   -2.5406    1.1427 H         1 <0>         0.1335
     30 H8          0.1496   -1.8105    4.6937 H         1 <0>         0.1332
     31 H9         -1.9481   -3.0383    5.1047 H         1 <0>         0.1305
     32 H10        -2.0596   -4.7055    6.9097 H         1 <0>         0.1281
     33 H11        -0.1049   -5.1496    8.3230 H         1 <0>         0.1297
     34 H12         2.1803   -3.4498    9.1533 H         1 <0>         0.0891
     35 H13         2.3507   -5.0661    8.4524 H         1 <0>         0.0931
     36 H14         4.4444   -3.6910    8.3545 H         1 <0>         0.0945
     37 H15         3.8775   -4.2399    6.7591 H         1 <0>         0.0811
     38 H16         3.3283   -1.4813    7.9673 H         1 <0>         0.1292
@<TRIPOS>BOND
     1    1    2 1
     2    1   23 1
     3    1   24 1
     4    1   25 1
     5    2    3 1
     6    3    8 ar
     7    3    4 ar
     8    4    5 ar
     9    4   26 1
    10    5    6 ar
    11    5   27 1
    12    6    7 ar
    13    6    9 1
    14    7    8 ar
    15    7   28 1
    16    8   29 1
    17    9   21 1
    18    9   10 2
    19   10   19 1
    20   10   11 1
    21   11   16 ar
    22   11   12 ar
    23   12   13 ar
    24   12   30 1
    25   13   14 ar
    26   13   31 1
    27   14   15 ar
    28   14   32 1
    29   15   16 ar
    30   15   33 1
    31   16   17 1
    32   17   18 1
    33   17   34 1
    34   17   35 1
    35   18   19 1
    36   18   36 1
    37   18   37 1
    38   19   20 1
    39   19   38 1
    40   20   21 1
    41   21   22 2
@<TRIPOS>MOLECULE
CHEMBL148666
   36    39     0     0     0
SMALL
USER_CHARGES

@<TRIPOS>ATOM
      1 C1         -0.0225    1.8097    0.0120 C.3       1 <0>        -0.1453
      2 S1          0.0021   -0.0041    0.0020 S.3       1 <0>        -0.1159
      3 C2          0.8767   -0.4266    1.4721 C.ar      1 <0>        -0.0747
      4 C3          1.3487    0.5767    2.3118 C.ar      1 <0>        -0.1349
      5 C4          2.0330    0.2487    3.4622 C.ar      1 <0>        -0.0657
      6 C5          2.2519   -1.0912    3.7844 C.ar      1 <0>        -0.0162
      7 C6          1.7771   -2.0959    2.9406 C.ar      1 <0>        -0.0753
      8 C7          1.0890   -1.7630    1.7938 C.ar      1 <0>        -0.0984
      9 C8          2.9875   -1.4463    5.0200 C.2       1 <0>         0.1025
     10 C9          2.7474   -2.5433    5.8235 C.2       1 <0>         0.0383
     11 N1          3.6685   -2.4908    6.8758 N.pl3     1 <0>        -0.4232
     12 C10         3.9883   -3.2284    7.9940 C.2       1 <0>         0.0274
     13 C11         4.9770   -2.8487    8.8024 C.2       1 <0>        -0.1722
     14 S2          5.5517   -1.3567    8.0066 S.3       1 <0>         0.1353
     15 C12         4.4102   -1.3627    6.6427 C.2       1 <0>         0.1790
     16 N2          4.0129   -0.7613    5.5570 N.2       1 <0>        -0.4286
     17 C13         1.7148   -3.5748    5.6131 C.ar      1 <0>        -0.0246
     18 C14         0.4140   -3.2046    5.2606 C.ar      1 <0>        -0.0865
     19 C15        -0.5464   -4.1748    5.0655 C.ar      1 <0>        -0.1134
     20 C16        -0.2249   -5.5122    5.2183 C.ar      1 <0>        -0.1089
     21 C17         1.0610   -5.8864    5.5672 C.ar      1 <0>        -0.1158
     22 C18         2.0336   -4.9277    5.7595 C.ar      1 <0>        -0.1089
     23 H1          1.0001    2.1870    0.0043 H         1 <0>         0.0854
     24 H2         -0.5497    2.1708   -0.8711 H         1 <0>         0.1104
     25 H3         -0.5327    2.1613    0.9088 H         1 <0>         0.0851
     26 H4          1.1790    1.6136    2.0620 H         1 <0>         0.1274
     27 H5          2.3999    1.0281    4.1136 H         1 <0>         0.1323
     28 H6          1.9453   -3.1336    3.1880 H         1 <0>         0.1300
     29 H7          0.7180   -2.5403    1.1423 H         1 <0>         0.1321
     30 H8          3.4306   -4.1255    8.2186 H         1 <0>         0.1739
     31 H9          5.3373   -3.3206    9.7046 H         1 <0>         0.2197
     32 H10         0.1615   -2.1613    5.1417 H         1 <0>         0.1273
     33 H11        -1.5520   -3.8903    4.7931 H         1 <0>         0.1296
     34 H12        -0.9813   -6.2676    5.0649 H         1 <0>         0.1268
     35 H13         1.3046   -6.9319    5.6851 H         1 <0>         0.1272
     36 H14         3.0379   -5.2214    6.0270 H         1 <0>         0.1189
@<TRIPOS>BOND
     1    1    2 1
     2    1   23 1
     3    1   24 1
     4    1   25 1
     5    2    3 1
     6    3    8 ar
     7    3    4 ar
     8    4    5 ar
     9    4   26 1
    10    5    6 ar
    11    5   27 1
    12    6    7 ar
    13    6    9 1
    14    7    8 ar
    15    7   28 1
    16    8   29 1
    17    9   16 1
    18    9   10 2
    19   10   11 1
    20   10   17 1
    21   11   15 1
    22   11   12 1
    23   12   13 2
    24   12   30 1
    25   13   14 1
    26   13   31 1
    27   14   15 1
    28   15   16 2
    29   17   22 ar
    30   17   18 ar
    31   18   19 ar
    32   18   32 1
    33   19   20 ar
    34   19   33 1
    35   20   21 ar
    36   20   34 1
    37   21   22 ar
    38   21   35 1
    39   22   36 1
@<TRIPOS>MOLECULE
CHEMBL119170
   46    48     0     0     0
SMALL
USER_CHARGES

@<TRIPOS>ATOM
      1 C1         -0.0187    1.5258    0.0104 C.3       1 <0>        -0.1366
      2 C2          0.0021   -0.0041    0.0020 C.3       1 <0>        -0.0508
      3 C3         -1.4208   -0.5776    0.2012 C.3       1 <0>         0.0543
      4 O1         -1.4941   -0.7626    1.6248 O.3       1 <0>        -0.2915
      5 C4         -0.2439   -0.9743    2.1164 C.ar      1 <0>         0.1476
      6 C5          0.7293   -0.5432    1.2190 C.ar      1 <0>        -0.1711
      7 C6          2.0642   -0.6513    1.5198 C.ar      1 <0>        -0.0069
      8 C7          2.4600   -1.2083    2.7400 C.ar      1 <0>        -0.1668
      9 C8          1.4882   -1.6497    3.6415 C.ar      1 <0>        -0.0530
     10 C9          0.1535   -1.5333    3.3318 C.ar      1 <0>        -0.0973
     11 C10        -0.8868   -2.0124    4.3111 C.3       1 <0>        -0.0221
     12 C11        -0.1957   -2.5779    5.5535 C.3       1 <0>        -0.1485
     13 C12        -1.7843   -0.8411    4.7155 C.3       1 <0>        -0.1413
     14 C13        -1.7368   -3.1046    3.6588 C.3       1 <0>        -0.1416
     15 C14         3.8930   -1.3293    3.0726 C.2       1 <0>         0.5704
     16 O2          4.7347   -0.9440    2.2843 O.2       1 <0>        -0.5351
     17 N1          4.2684   -1.8670    4.2500 N.am      1 <0>        -0.7004
     18 C15         5.6907   -1.9871    4.5801 C.3       1 <0>         0.0782
     19 C16         6.1617   -3.3001    5.2086 C.3       1 <0>        -0.1922
     20 C17         6.0707   -2.0332    6.0615 C.3       1 <0>        -0.1883
     21 C18         0.6300   -0.5328   -1.2892 C.3       1 <0>        -0.1383
     22 H1          1.0039    1.9031    0.0027 H         1 <0>         0.0649
     23 H2         -0.5459    1.8868   -0.8726 H         1 <0>         0.0661
     24 H3         -0.5289    1.8773    0.9072 H         1 <0>         0.0606
     25 H4         -2.1746    0.1345   -0.1348 H         1 <0>         0.1100
     26 H5         -1.5293   -1.5299   -0.3178 H         1 <0>         0.0816
     27 H6          2.8072   -0.3067    0.8159 H         1 <0>         0.1373
     28 H7          1.7861   -2.0836    4.5846 H         1 <0>         0.1363
     29 H8          0.4098   -1.7998    6.0182 H         1 <0>         0.0589
     30 H9         -0.9481   -2.9244    6.2618 H         1 <0>         0.0634
     31 H10         0.4437   -3.4123    5.2654 H         1 <0>         0.0587
     32 H11        -2.2768   -0.4383    3.8304 H         1 <0>         0.0651
     33 H12        -2.5368   -1.1877    5.4239 H         1 <0>         0.0593
     34 H13        -1.1789   -0.0630    5.1803 H         1 <0>         0.0541
     35 H14        -1.0974   -3.9391    3.3707 H         1 <0>         0.0538
     36 H15        -2.4892   -3.4512    4.3671 H         1 <0>         0.0596
     37 H16        -2.2292   -2.7018    2.7737 H         1 <0>         0.0640
     38 H17         3.5970   -2.1744    4.8789 H         1 <0>         0.4002
     39 H18         6.3755   -1.4800    3.9004 H         1 <0>         0.1399
     40 H19         5.4133   -4.0746    5.3764 H         1 <0>         0.0974
     41 H20         7.1565   -3.6572    4.9423 H         1 <0>         0.1042
     42 H21         7.0057   -1.5567    6.3563 H         1 <0>         0.1055
     43 H22         5.2625   -1.9742    6.7904 H         1 <0>         0.0977
     44 H23         1.6577   -0.1776   -1.3654 H         1 <0>         0.0662
     45 H24         0.6221   -1.6227   -1.2772 H         1 <0>         0.0610
     46 H25         0.0574   -0.1747   -2.1448 H         1 <0>         0.0655
@<TRIPOS>BOND
     1    1    2 1
     2    1   22 1
     3    1   23 1
     4    1   24 1
     5    2    6 1
     6    2    3 1
     7    2   21 1
     8    3    4 1
     9    3   25 1
    10    3   26 1
    11    4    5 1
    12    5   10 ar
    13    5    6 ar
    14    6    7 ar
    15    7    8 ar
    16    7   27 1
    17    8    9 ar
    18    8   15 1
    19    9   10 ar
    20    9   28 1
    21   10   11 1
    22   11   12 1
    23   11   13 1
    24   11   14 1
    25   12   29 1
    26   12   30 1
    27   12   31 1
    28   13   32 1
    29   13   33 1
    30   13   34 1
    31   14   35 1
    32   14   36 1
    33   14   37 1
    34   15   16 2
    35   15   17 am
    36   17   18 1
    37   17   38 1
    38   18   20 1
    39   18   19 1
    40   18   39 1
    41   19   20 1
    42   19   40 1
    43   19   41 1
    44   20   42 1
    45   20   43 1
    46   21   44 1
    47   21   45 1
    48   21   46 1
@<TRIPOS>MOLECULE
CHEMBL42485
   35    37     0     0     0
SMALL
USER_CHARGES

@<TRIPOS>ATOM
      1 C1          0.5182    1.3282    0.5392 C.3       1 <0>        -0.6505
      2 S1          0.5973   -0.4799    0.4166 S.o2      1 <0>         2.4980
      3 O1          1.5493   -0.9919    1.3391 O.2       1 <0>        -0.9359
      4 O2         -0.7138   -1.0239    0.3518 O.2       1 <0>        -0.9361
      5 C2          1.2942   -0.7961   -1.1705 C.ar      1 <0>        -0.6580
      6 C3          0.4675   -0.9297   -2.2717 C.ar      1 <0>        -0.0199
      7 C4          1.0072   -1.1777   -3.5171 C.ar      1 <0>        -0.1275
      8 C5          2.3892   -1.2933   -3.6646 C.ar      1 <0>         0.0261
      9 C6          3.2175   -1.1572   -2.5508 C.ar      1 <0>        -0.1188
     10 C7          2.6662   -0.9041   -1.3114 C.ar      1 <0>        -0.0195
     11 C8          2.9751   -1.5601   -4.9989 C.2       1 <0>        -0.0892
     12 C9          2.5816   -2.6624   -5.7465 C.2       1 <0>        -0.0929
     13 C10         3.1406   -2.8711   -6.9618 C.2       1 <0>        -0.1803
     14 S2          4.2691   -1.4971   -7.1117 S.3       1 <0>         0.1458
     15 C11         3.9321   -0.7114   -5.5448 C.2       1 <0>        -0.0820
     16 C12         4.5182    0.5179   -4.9755 C.ar      1 <0>        -0.0313
     17 C13         5.9012    0.7121   -5.0010 C.ar      1 <0>        -0.0667
     18 C14         6.4431    1.8628   -4.4681 C.ar      1 <0>        -0.1497
     19 C15         5.6183    2.8252   -3.9075 C.ar      1 <0>         0.1155
     20 C16         4.2454    2.6381   -3.8793 C.ar      1 <0>        -0.1512
     21 C17         3.6916    1.4940   -4.4144 C.ar      1 <0>        -0.0560
     22 F1          6.1548    3.9502   -3.3861 F         1 <0>        -0.1334
     23 Br1         2.8085   -4.2683   -8.1920 Br        1 <0>         0.0481
     24 H1          1.5224    1.7427    0.4499 H         1 <0>         0.1318
     25 H2         -0.1090    1.7196   -0.2617 H         1 <0>         0.1318
     26 H3          0.0937    1.6088    1.5032 H         1 <0>         0.1340
     27 H4         -0.6026   -0.8399   -2.1563 H         1 <0>         0.1455
     28 H5          0.3608   -1.2825   -4.3759 H         1 <0>         0.1355
     29 H6          4.2884   -1.2457   -2.6588 H         1 <0>         0.1330
     30 H7          3.3068   -0.7945   -0.4489 H         1 <0>         0.1448
     31 H8          1.8385   -3.3456   -5.3626 H         1 <0>         0.1476
     32 H9          6.5450   -0.0376   -5.4369 H         1 <0>         0.1386
     33 H10         7.5122    2.0141   -4.4872 H         1 <0>         0.1440
     34 H11         3.6076    3.3915   -3.4412 H         1 <0>         0.1426
     35 H12         2.6213    1.3513   -4.3959 H         1 <0>         0.1361
@<TRIPOS>BOND
     1    1    2 1
     2    1   24 1
     3    1   25 1
     4    1   26 1
     5    2    3 2
     6    2    4 2
     7    2    5 1
     8    5   10 ar
     9    5    6 ar
    10    6    7 ar
    11    6   27 1
    12    7    8 ar
    13    7   28 1
    14    8    9 ar
    15    8   11 1
    16    9   10 ar
    17    9   29 1
    18   10   30 1
    19   11   15 2
    20   11   12 1
    21   12   13 2
    22   12   31 1
    23   13   14 1
    24   13   23 1
    25   14   15 1
    26   15   16 1
    27   16   21 ar
    28   16   17 ar
    29   17   18 ar
    30   17   32 1
    31   18   19 ar
    32   18   33 1
    33   19   20 ar
    34   19   22 1
    35   20   21 ar
    36   20   34 1
    37   21   35 1
@<TRIPOS>MOLECULE
CHEMBL16814
   45    46     0     0     0
SMALL
USER_CHARGES

@<TRIPOS>ATOM
      1 C1         -0.0187    1.5258    0.0104 C.3       1 <0>        -0.1507
      2 C2          0.0021   -0.0041    0.0020 C.3       1 <0>        -0.0204
      3 C3          0.7421   -0.5109    1.2415 C.3       1 <0>        -0.1430
      4 C4         -1.4333   -0.5336    0.0129 C.3       1 <0>        -0.1432
      5 C5          0.7074   -0.4901   -1.2379 C.ar      1 <0>        -0.0919
      6 C6          1.2150    0.4184   -2.1416 C.ar      1 <0>        -0.0585
      7 C7          1.8689   -0.0330   -3.2900 C.ar      1 <0>        -0.0287
      8 C8          2.0056   -1.4040   -3.5176 C.ar      1 <0>        -0.0772
      9 C9          1.4951   -2.3058   -2.6088 C.ar      1 <0>        -0.0934
     10 C10         0.8502   -1.8526   -1.4654 C.ar      1 <0>         0.1469
     11 O1          0.3530   -2.7448   -0.5695 O.3       1 <0>        -0.4823
     12 C11         1.6421   -3.7855   -2.8534 C.3       1 <0>        -0.0206
     13 C12         2.3895   -4.0132   -4.1689 C.3       1 <0>        -0.1491
     14 C13         2.4296   -4.4168   -1.7036 C.3       1 <0>        -0.1434
     15 C14         0.2564   -4.4289   -2.9362 C.3       1 <0>        -0.1432
     16 C15         2.4140    0.9371   -4.2616 C.2       1 <0>         0.2170
     17 N1          2.3597    2.2439   -4.1680 N.2       1 <0>        -0.2480
     18 N2          2.9347    2.7696   -5.1918 N.2       1 <0>        -0.2974
     19 C16         3.3787    1.8198   -5.9791 C.2       1 <0>         0.4076
     20 O2          3.0655    0.6416   -5.4075 O.3       1 <0>        -0.2240
     21 N3          4.0514    1.9961   -7.1767 N.pl3     1 <0>        -0.5425
     22 C17         4.3064    3.2463   -7.6329 C.1       1 <0>         0.4263
     23 N4          4.5202    4.2944   -8.0153 N.1       1 <0>        -0.3610
     24 H1          1.0039    1.9031    0.0027 H         1 <0>         0.0614
     25 H2         -0.5459    1.8868   -0.8726 H         1 <0>         0.0606
     26 H3         -0.5289    1.8773    0.9072 H         1 <0>         0.0626
     27 H4          0.2319   -0.1594    2.1383 H         1 <0>         0.0571
     28 H5          0.7568   -1.6008    1.2356 H         1 <0>         0.0752
     29 H6          1.7647   -0.1336    1.2338 H         1 <0>         0.0528
     30 H7         -1.9605   -0.1726   -0.8702 H         1 <0>         0.0561
     31 H8         -1.4185   -1.6235    0.0069 H         1 <0>         0.0580
     32 H9         -1.9435   -0.1821    0.9097 H         1 <0>         0.0637
     33 H10         1.1069    1.4778   -1.9621 H         1 <0>         0.1493
     34 H11         2.5103   -1.7572   -4.4047 H         1 <0>         0.1395
     35 H12        -0.5599   -3.0110   -0.7448 H         1 <0>         0.3878
     36 H13         3.3767   -3.5549   -4.1099 H         1 <0>         0.0591
     37 H14         2.4958   -5.0835   -4.3458 H         1 <0>         0.0628
     38 H15         1.8284   -3.5635   -4.9881 H         1 <0>         0.0584
     39 H16         1.8971   -4.2546   -0.7664 H         1 <0>         0.0765
     40 H17         2.5359   -5.4871   -1.8805 H         1 <0>         0.0567
     41 H18         3.4168   -3.9585   -1.6446 H         1 <0>         0.0523
     42 H19        -0.3047   -3.9791   -3.7554 H         1 <0>         0.0557
     43 H20         0.3627   -5.4991   -3.1131 H         1 <0>         0.0634
     44 H21        -0.2761   -4.2666   -1.9990 H         1 <0>         0.0588
     45 H22         4.3401    1.2246   -7.6890 H         1 <0>         0.4529
@<TRIPOS>BOND
     1    1    2 1
     2    1   24 1
     3    1   25 1
     4    1   26 1
     5    2    3 1
     6    2    4 1
     7    2    5 1
     8    3   27 1
     9    3   28 1
    10    3   29 1
    11    4   30 1
    12    4   31 1
    13    4   32 1
    14    5   10 ar
    15    5    6 ar
    16    6    7 ar
    17    6   33 1
    18    7    8 ar
    19    7   16 1
    20    8    9 ar
    21    8   34 1
    22    9   10 ar
    23    9   12 1
    24   10   11 1
    25   11   35 1
    26   12   13 1
    27   12   14 1
    28   12   15 1
    29   13   36 1
    30   13   37 1
    31   13   38 1
    32   14   39 1
    33   14   40 1
    34   14   41 1
    35   15   42 1
    36   15   43 1
    37   15   44 1
    38   16   20 1
    39   16   17 2
    40   17   18 1
    41   18   19 2
    42   19   20 1
    43   19   21 1
    44   21   22 1
    45   21   45 1
    46   22   23 3
@<TRIPOS>MOLECULE
CHEMBL276800
   52    53     0     0     0
SMALL
USER_CHARGES

@<TRIPOS>ATOM
      1 C1         -1.0851    1.2835    0.8493 C.3       1 <0>        -0.1542
      2 C2         -0.8769   -0.2306    0.7785 C.3       1 <0>        -0.1249
      3 C3          0.1154   -0.6602    1.8609 C.3       1 <0>        -0.1122
      4 C4          0.3235   -2.1743    1.7901 C.3       1 <0>        -0.1668
      5 C5          1.3010   -2.5974    2.8562 C.2       1 <0>         0.3969
      6 O1          1.7838   -1.7692    3.5997 O.2       1 <0>        -0.4527
      7 C6          1.6687   -4.0107    2.9950 C.ar      1 <0>        -0.1730
      8 C7          2.5699   -4.4073    3.9856 C.ar      1 <0>        -0.0513
      9 C8          2.9217   -5.7303    4.1325 C.ar      1 <0>        -0.0805
     10 C9          2.3586   -6.6732    3.2843 C.ar      1 <0>        -0.0442
     11 C10         1.4638   -6.2782    2.2831 C.ar      1 <0>        -0.0654
     12 C11         1.1129   -4.9703    2.1378 C.ar      1 <0>        -0.0641
     13 C12         0.8767   -7.3136    1.3587 C.3       1 <0>        -0.0297
     14 C13        -0.0319   -6.6279    0.3364 C.3       1 <0>        -0.1459
     15 C14         2.0055   -8.0442    0.6287 C.3       1 <0>        -0.1576
     16 C15         0.0606   -8.3197    2.1726 C.3       1 <0>        -0.1499
     17 S1          2.7202   -8.3951    3.4334 S.3       1 <0>        -0.0726
     18 C16         4.1540   -8.4275    4.5492 C.3       1 <0>        -0.1451
     19 C17         3.8447   -7.4740    5.7126 C.3       1 <0>        -0.1104
     20 C18         3.9150   -6.0418    5.2130 C.3       1 <0>        -0.0289
     21 C19         3.6658   -5.0998    6.3926 C.3       1 <0>        -0.1448
     22 C20         5.3226   -5.7808    4.6731 C.3       1 <0>        -0.1448
     23 H1         -0.1326    1.7890    0.6903 H         1 <0>         0.0544
     24 H2         -1.7920    1.5895    0.0782 H         1 <0>         0.0547
     25 H3         -1.4789    1.5507    1.8300 H         1 <0>         0.0545
     26 H4         -1.8294   -0.7361    0.9376 H         1 <0>         0.0622
     27 H5         -0.4832   -0.4978   -0.2021 H         1 <0>         0.0622
     28 H6          1.0679   -0.1547    1.7019 H         1 <0>         0.0682
     29 H7         -0.2784   -0.3930    2.8416 H         1 <0>         0.0682
     30 H8         -0.6290   -2.6798    1.9492 H         1 <0>         0.0990
     31 H9          0.7173   -2.4415    0.8094 H         1 <0>         0.0990
     32 H10         2.9968   -3.6661    4.6451 H         1 <0>         0.1375
     33 H11         0.4167   -4.6749    1.3668 H         1 <0>         0.1414
     34 H12         0.5495   -5.9111   -0.2434 H         1 <0>         0.0597
     35 H13        -0.4566   -7.3768   -0.3322 H         1 <0>         0.0631
     36 H14        -0.8361   -6.1074    0.8565 H         1 <0>         0.0593
     37 H15         2.5670   -8.6490    1.3407 H         1 <0>         0.0856
     38 H16         1.5825   -8.6890   -0.1416 H         1 <0>         0.0603
     39 H17         2.6713   -7.3151    0.1669 H         1 <0>         0.0551
     40 H18        -0.7883   -7.8127    2.6312 H         1 <0>         0.0575
     41 H19        -0.3004   -9.1109    1.5155 H         1 <0>         0.0637
     42 H20         0.6891   -8.7525    2.9510 H         1 <0>         0.0750
     43 H21         4.3069   -9.4380    4.9280 H         1 <0>         0.1107
     44 H22         5.0446   -8.0899    4.0191 H         1 <0>         0.0966
     45 H23         2.8446   -7.6780    6.0950 H         1 <0>         0.0779
     46 H24         4.5766   -7.6192    6.5071 H         1 <0>         0.0842
     47 H25         2.6183   -5.1573    6.6885 H         1 <0>         0.0602
     48 H26         4.2969   -5.3931    7.2314 H         1 <0>         0.0638
     49 H27         3.9046   -4.0778    6.0981 H         1 <0>         0.0641
     50 H28         5.4107   -4.7350    4.3788 H         1 <0>         0.0606
     51 H29         6.0560   -6.0031    5.4482 H         1 <0>         0.0650
     52 H30         5.5038   -6.4183    3.8078 H         1 <0>         0.0584
@<TRIPOS>BOND
     1    1    2 1
     2    1   23 1
     3    1   24 1
     4    1   25 1
     5    2    3 1
     6    2   26 1
     7    2   27 1
     8    3    4 1
     9    3   28 1
    10    3   29 1
    11    4    5 1
    12    4   30 1
    13    4   31 1
    14    5    6 2
    15    5    7 1
    16    7   12 ar
    17    7    8 ar
    18    8    9 ar
    19    8   32 1
    20    9   20 1
    21    9   10 ar
    22   10   11 ar
    23   10   17 1
    24   11   12 ar
    25   11   13 1
    26   12   33 1
    27   13   14 1
    28   13   15 1
    29   13   16 1
    30   14   34 1
    31   14   35 1
    32   14   36 1
    33   15   37 1
    34   15   38 1
    35   15   39 1
    36   16   40 1
    37   16   41 1
    38   16   42 1
    39   17   18 1
    40   18   19 1
    41   18   43 1
    42   18   44 1
    43   19   20 1
    44   19   45 1
    45   19   46 1
    46   20   21 1
    47   20   22 1
    48   21   47 1
    49   21   48 1
    50   21   49 1
    51   22   50 1
    52   22   51 1
    53   22   52 1
@<TRIPOS>MOLECULE
CHEMBL64813
   53    54     0     0     0
SMALL
USER_CHARGES

@<TRIPOS>ATOM
      1 C1         -0.1663    0.9736   -0.0361 C.3       1 <0>        -0.1486
      2 C2         -0.3138   -0.5172   -0.3468 C.3       1 <0>        -0.0211
      3 C3          0.2979   -1.3381    0.7903 C.3       1 <0>        -0.1420
      4 C4         -1.7972   -0.8649   -0.4861 C.3       1 <0>        -0.1426
      5 C5          0.3997   -0.8347   -1.6357 C.ar      1 <0>        -0.0949
      6 C6          1.0524    0.1646   -2.3254 C.ar      1 <0>        -0.0858
      7 C7          1.7130   -0.1305   -3.5191 C.ar      1 <0>        -0.0918
      8 C8          1.7098   -1.4372   -4.0097 C.ar      1 <0>        -0.0869
      9 C9          1.0548   -2.4310   -3.3142 C.ar      1 <0>        -0.0974
     10 C10         0.4036   -2.1346   -2.1241 C.ar      1 <0>         0.1343
     11 O1         -0.2361   -3.1179   -1.4386 O.3       1 <0>        -0.4845
     12 C11         1.0504   -3.8421   -3.8432 C.3       1 <0>        -0.0207
     13 C12         1.8374   -3.8978   -5.1540 C.3       1 <0>        -0.1498
     14 C13         1.7006   -4.7732   -2.8179 C.3       1 <0>        -0.1420
     15 C14        -0.3915   -4.2879   -4.0946 C.3       1 <0>        -0.1428
     16 C15         2.4134    0.9379   -4.2618 C.2       1 <0>         0.0507
     17 C16         3.5387    0.6674   -4.9089 C.2       1 <0>        -0.6839
     18 C17         4.2396   -0.6736   -4.7738 C.3       1 <0>        -0.0767
     19 C18         5.7040   -0.4250   -4.4106 C.3       1 <0>        -0.1543
     20 C19         6.4402    0.2851   -5.5435 C.3       1 <0>         0.1122
     21 N1          5.9431    1.6651   -5.6764 N.pl3     1 <0>        -1.1112
     22 S1          4.3080    1.8496   -5.9884 S.o2      1 <0>         2.6743
     23 O2          4.0799    1.4104   -7.3204 O.2       1 <0>        -0.9503
     24 O3          3.9373    3.1413   -5.5263 O.2       1 <0>        -0.9612
     25 H1          0.8906    1.2213    0.0631 H         1 <0>         0.0589
     26 H2         -0.6020    1.5584   -0.8462 H         1 <0>         0.0589
     27 H3         -0.6823    1.2033    0.8961 H         1 <0>         0.0613
     28 H4         -0.2182   -1.1085    1.7225 H         1 <0>         0.0555
     29 H5          0.1928   -2.4002    0.5689 H         1 <0>         0.0751
     30 H6          1.3547   -1.0904    0.8895 H         1 <0>         0.0509
     31 H7         -2.2329   -0.2801   -1.2961 H         1 <0>         0.0550
     32 H8         -1.9023   -1.9270   -0.7074 H         1 <0>         0.0580
     33 H9         -2.3133   -0.6352    0.4462 H         1 <0>         0.0620
     34 H10         1.0524    1.1746   -1.9429 H         1 <0>         0.1360
     35 H11         2.2195   -1.6693   -4.9331 H         1 <0>         0.1414
     36 H12        -1.1620   -3.2352   -1.6914 H         1 <0>         0.3845
     37 H13         2.8646   -3.5802   -4.9749 H         1 <0>         0.0586
     38 H14         1.8342   -4.9185   -5.5367 H         1 <0>         0.0622
     39 H15         1.3741   -3.2345   -5.8844 H         1 <0>         0.0590
     40 H16         1.1399   -4.7335   -1.8840 H         1 <0>         0.0754
     41 H17         1.6974   -5.7938   -3.2006 H         1 <0>         0.0556
     42 H18         2.7278   -4.4556   -2.6388 H         1 <0>         0.0508
     43 H19        -0.8548   -3.6246   -4.8250 H         1 <0>         0.0550
     44 H20        -0.3947   -5.3086   -4.4773 H         1 <0>         0.0623
     45 H21        -0.9522   -4.2482   -3.1607 H         1 <0>         0.0578
     46 H22         2.0088    1.9391   -4.2775 H         1 <0>         0.1418
     47 H23         3.7619   -1.2586   -3.9879 H         1 <0>         0.0943
     48 H24         4.1837   -1.2125   -5.7197 H         1 <0>         0.0842
     49 H25         5.7498    0.1916   -3.5129 H         1 <0>         0.0784
     50 H26         6.1901   -1.3802   -4.2120 H         1 <0>         0.0915
     51 H27         7.5080    0.3043   -5.3254 H         1 <0>         0.0941
     52 H28         6.2722   -0.2518   -6.4770 H         1 <0>         0.0770
     53 H29         6.5348    2.4289   -5.5903 H         1 <0>         0.4217
@<TRIPOS>BOND
     1    1    2 1
     2    1   25 1
     3    1   26 1
     4    1   27 1
     5    2    3 1
     6    2    4 1
     7    2    5 1
     8    3   28 1
     9    3   29 1
    10    3   30 1
    11    4   31 1
    12    4   32 1
    13    4   33 1
    14    5   10 ar
    15    5    6 ar
    16    6    7 ar
    17    6   34 1
    18    7    8 ar
    19    7   16 1
    20    8    9 ar
    21    8   35 1
    22    9   10 ar
    23    9   12 1
    24   10   11 1
    25   11   36 1
    26   12   13 1
    27   12   14 1
    28   12   15 1
    29   13   37 1
    30   13   38 1
    31   13   39 1
    32   14   40 1
    33   14   41 1
    34   14   42 1
    35   15   43 1
    36   15   44 1
    37   15   45 1
    38   16   17 2
    39   16   46 1
    40   17   22 1
    41   17   18 1
    42   18   19 1
    43   18   47 1
    44   18   48 1
    45   19   20 1
    46   19   49 1
    47   19   50 1
    48   20   21 1
    49   20   51 1
    50   20   52 1
    51   21   22 1
    52   21   53 1
    53   22   23 2
    54   22   24 2
@<TRIPOS>MOLECULE
CHEMBL154
   30    31     0     0     0
SMALL
USER_CHARGES

@<TRIPOS>ATOM
      1 C1         -0.0187    1.5258    0.0104 C.3       1 <0>        -0.1185
      2 C2          0.0021   -0.0041    0.0020 C.3       1 <0>        -0.1364
      3 H1         -1.0205   -0.3814    0.0098 H         1 <0>         0.0713
      4 C3          0.7074   -0.4901   -1.2379 C.ar      1 <0>        -0.0233
      5 C4          2.0367   -0.1325   -1.4560 C.ar      1 <0>        -0.0492
      6 C5          2.7027   -0.5545   -2.5653 C.ar      1 <0>        -0.1340
      7 C6          2.0432   -1.3636   -3.5068 C.ar      1 <0>        -0.0210
      8 C7          2.6987   -1.8182   -4.6628 C.ar      1 <0>        -0.1462
      9 C8          2.0264   -2.6031   -5.5556 C.ar      1 <0>         0.1082
     10 C9          0.6925   -2.9604   -5.3345 C.ar      1 <0>        -0.2006
     11 C10         0.0299   -2.5361   -4.2254 C.ar      1 <0>        -0.0655
     12 C11         0.6914   -1.7275   -3.2846 C.ar      1 <0>        -0.0750
     13 C12         0.0385   -1.2762   -2.1250 C.ar      1 <0>        -0.1205
     14 O1          2.6617   -3.0423   -6.6736 O.3       1 <0>        -0.3228
     15 C13         1.9067   -3.8599   -7.5700 C.3       1 <0>         0.0296
     16 C14         0.7309   -0.5033    1.2229 C.2       1 <0>         0.5002
     17 O2          0.3210   -0.2204    2.3358 O.co2     1 <0>        -0.6976
     18 O3          1.7305   -1.1901    1.0978 O.co2     1 <0>        -0.6861
     19 H2          1.0039    1.9031    0.0027 H         1 <0>         0.0479
     20 H3         -0.5459    1.8868   -0.8726 H         1 <0>         0.0406
     21 H4         -0.5289    1.8773    0.9072 H         1 <0>         0.0604
     22 H5          2.5458    0.4890   -0.7342 H         1 <0>         0.1214
     23 H6          3.7325   -0.2690   -2.7216 H         1 <0>         0.1221
     24 H7          3.7285   -1.5483   -4.8448 H         1 <0>         0.1285
     25 H8          0.1814   -3.5818   -6.0549 H         1 <0>         0.1229
     26 H9         -1.0004   -2.8192   -4.0679 H         1 <0>         0.1257
     27 H10        -0.9902   -1.5485   -1.9405 H         1 <0>         0.1191
     28 H11         2.5306   -4.1410   -8.4184 H         1 <0>         0.0948
     29 H12         1.5744   -4.7583   -7.0499 H         1 <0>         0.0524
     30 H13         1.0391   -3.3040   -7.9254 H         1 <0>         0.0519
@<TRIPOS>BOND
     1    1    2 1
     2    1   19 1
     3    1   20 1
     4    1   21 1
     5    2    3 1
     6    2    4 1
     7    2   16 1
     8    4   13 ar
     9    4    5 ar
    10    5    6 ar
    11    5   22 1
    12    6    7 ar
    13    6   23 1
    14    7   12 ar
    15    7    8 ar
    16    8    9 ar
    17    8   24 1
    18    9   10 ar
    19    9   14 1
    20   10   11 ar
    21   10   25 1
    22   11   12 ar
    23   11   26 1
    24   12   13 ar
    25   13   27 1
    26   14   15 1
    27   15   28 1
    28   15   29 1
    29   15   30 1
    30   16   17 2
    31   16   18 1
@<TRIPOS>MOLECULE
CHEMBL293617
   40    44     0     0     0
SMALL
USER_CHARGES

@<TRIPOS>ATOM
      1 C1         -0.0397    1.3919    0.0638 C.ar      1 <0>        -0.1131
      2 C2          1.1460    2.1027    0.0626 C.ar      1 <0>        -0.0935
      3 C3          2.3581    1.4390    0.0445 C.ar      1 <0>        -0.1106
      4 C4          2.3936    0.0520    0.0273 C.ar      1 <0>         0.0990
      5 C5          1.1949   -0.6605    0.0272 C.ar      1 <0>         0.0871
      6 C6         -0.0161    0.0088    0.0455 C.ar      1 <0>        -0.1044
      7 N1          1.2283   -2.0687    0.0079 N.am      1 <0>        -0.4908
      8 C7          2.4867   -2.6563   -0.0048 C.ar      1 <0>         0.0426
      9 C8          2.4440   -4.0287   -0.0202 C.ar      1 <0>        -0.0741
     10 C9          3.6327   -4.7258   -0.0323 C.ar      1 <0>        -0.0623
     11 C10         4.8301   -4.0254   -0.0292 C.ar      1 <0>        -0.0938
     12 C11         4.8583   -2.6392   -0.0149 C.ar      1 <0>        -0.0964
     13 C12         3.6644   -1.9355   -0.0030 C.ar      1 <0>         0.1084
     14 O1          3.6016   -0.5800    0.0105 O.3       1 <0>        -0.2389
     15 C13         0.9747   -4.3696   -0.0194 C.3       1 <0>        -0.0904
     16 C14         0.2748   -3.0205   -0.0008 C.2       1 <0>         0.5431
     17 O2         -0.9240   -2.8347    0.0049 O.2       1 <0>        -0.4732
     18 C15         0.6192   -5.1645    1.2106 C.2       1 <0>         0.5413
     19 O3          1.4758   -5.4376    2.0248 O.2       1 <0>        -0.4890
     20 N2         -0.6506   -5.5719    1.4059 N.am      1 <0>        -0.6603
     21 C16        -0.9637   -6.3893    2.5004 C.ar      1 <0>         0.1025
     22 C17        -0.2908   -6.2279    3.7035 C.ar      1 <0>        -0.0649
     23 C18        -0.6007   -7.0345    4.7813 C.ar      1 <0>        -0.1412
     24 C19        -1.5821   -8.0043    4.6632 C.ar      1 <0>         0.1206
     25 C20        -2.2553   -8.1687    3.4645 C.ar      1 <0>        -0.1718
     26 C21        -1.9529   -7.3594    2.3845 C.ar      1 <0>         0.1097
     27 F1         -2.6137   -7.5154    1.2164 F         1 <0>        -0.1256
     28 F2         -1.8829   -8.7916    5.7191 F         1 <0>        -0.1278
     29 H1         -0.9838    1.9159    0.0835 H         1 <0>         0.1396
     30 H2          1.1249    3.1824    0.0755 H         1 <0>         0.1423
     31 H3          3.2801    2.0015    0.0434 H         1 <0>         0.1469
     32 H4         -0.9416   -0.5478    0.0452 H         1 <0>         0.1466
     33 H5          3.6321   -5.8057   -0.0437 H         1 <0>         0.1424
     34 H6          5.7614   -4.5722   -0.0377 H         1 <0>         0.1471
     35 H7          5.8014   -2.1129   -0.0128 H         1 <0>         0.1502
     36 H8          0.7115   -4.9229   -0.9209 H         1 <0>         0.1652
     37 H9         -1.3477   -5.2993    0.7890 H         1 <0>         0.4230
     38 H10         0.4751   -5.4722    3.7969 H         1 <0>         0.1591
     39 H11        -0.0766   -6.9088    5.7172 H         1 <0>         0.1497
     40 H12        -3.0201   -8.9258    3.3744 H         1 <0>         0.1558
@<TRIPOS>BOND
     1    1    6 ar
     2    1    2 ar
     3    1   29 1
     4    2    3 ar
     5    2   30 1
     6    3    4 ar
     7    3   31 1
     8    4   14 1
     9    4    5 ar
    10    5    6 ar
    11    5    7 1
    12    6   32 1
    13    7   16 am
    14    7    8 1
    15    8   13 ar
    16    8    9 ar
    17    9   10 ar
    18    9   15 1
    19   10   11 ar
    20   10   33 1
    21   11   12 ar
    22   11   34 1
    23   12   13 ar
    24   12   35 1
    25   13   14 1
    26   15   16 1
    27   15   18 1
    28   15   36 1
    29   16   17 2
    30   18   19 2
    31   18   20 am
    32   20   21 1
    33   20   37 1
    34   21   26 ar
    35   21   22 ar
    36   22   23 ar
    37   22   38 1
    38   23   24 ar
    39   23   39 1
    40   24   25 ar
    41   24   28 1
    42   25   26 ar
    43   25   40 1
    44   26   27 1
@<TRIPOS>MOLECULE
CHEMBL293617__1
   39    43     0     0     0
SMALL
USER_CHARGES

@<TRIPOS>ATOM
      1 C1         -0.0798    1.3786    0.0090 C.ar      1 <0>        -0.1192
      2 C2          1.1027    2.0947    0.0030 C.ar      1 <0>        -0.1196
      3 C3          2.3174    1.4363   -0.0107 C.ar      1 <0>        -0.1202
      4 C4          2.3603    0.0492   -0.0187 C.ar      1 <0>         0.0847
      5 C5          1.1635   -0.6691   -0.0124 C.ar      1 <0>         0.1219
      6 C6         -0.0499   -0.0043    0.0016 C.ar      1 <0>        -0.1134
      7 N1          1.2055   -2.0750   -0.0222 N.pl3     1 <0>        -0.4609
      8 C7          2.4611   -2.6389   -0.0373 C.ar      1 <0>        -0.0291
      9 C8          2.3843   -4.0226   -0.0464 C.ar      1 <0>         0.0449
     10 C9          3.5832   -4.7344   -0.0614 C.ar      1 <0>        -0.1464
     11 C10         4.7772   -4.0383   -0.0665 C.ar      1 <0>        -0.0929
     12 C11         4.8235   -2.6478   -0.0571 C.ar      1 <0>        -0.1754
     13 C12         3.6411   -1.9286   -0.0426 C.ar      1 <0>         0.1186
     14 O1          3.5752   -0.5730   -0.0321 O.3       1 <0>        -0.2504
     15 C13         0.9402   -4.3097   -0.0357 C.2       1 <0>        -0.4439
     16 C14         0.2887   -3.0762   -0.0212 C.2       1 <0>         0.4932
     17 O2         -1.0523   -2.9040   -0.0086 O.3       1 <0>        -0.6751
     18 C15         0.3117   -5.6299   -0.0394 C.2       1 <0>         0.6509
     19 O3          0.0592   -6.1870    1.0135 O.2       1 <0>        -0.5348
     20 N2          0.0117   -6.2301   -1.2083 N.am      1 <0>        -0.6689
     21 C16        -0.5040   -7.5328   -1.2148 C.ar      1 <0>         0.1286
     22 C17        -1.3504   -7.9504   -0.1971 C.ar      1 <0>        -0.0719
     23 C18        -1.8583   -9.2351   -0.2053 C.ar      1 <0>        -0.1401
     24 C19        -1.5241  -10.1072   -1.2277 C.ar      1 <0>         0.0958
     25 C20        -0.6797   -9.6945   -2.2445 C.ar      1 <0>        -0.1720
     26 C21        -0.1732   -8.4075   -2.2437 C.ar      1 <0>         0.0898
     27 F1          0.6459   -8.0024   -3.2388 F         1 <0>        -0.1301
     28 F2         -2.0224  -11.3629   -1.2329 F         1 <0>        -0.1380
     29 H1         -1.0263    1.8985    0.0241 H         1 <0>         0.1287
     30 H2          1.0769    3.1744    0.0087 H         1 <0>         0.1300
     31 H3          3.2367    2.0031   -0.0156 H         1 <0>         0.1353
     32 H4         -0.9730   -0.5648    0.0066 H         1 <0>         0.1502
     33 H5          3.5789   -5.8143   -0.0685 H         1 <0>         0.1166
     34 H6          5.7046   -4.5917   -0.0779 H         1 <0>         0.1203
     35 H7          5.7735   -2.1342   -0.0614 H         1 <0>         0.1257
     36 H8          0.1528   -5.7601   -2.0450 H         1 <0>         0.4140
     37 H9         -1.6115   -7.2714    0.6011 H         1 <0>         0.1626
     38 H10        -2.5166   -9.5598    0.5869 H         1 <0>         0.1430
     39 H11        -0.4197  -10.3764   -3.0405 H         1 <0>         0.1472
@<TRIPOS>BOND
     1    1    6 ar
     2    1    2 ar
     3    1   29 1
     4    2    3 ar
     5    2   30 1
     6    3    4 ar
     7    3   31 1
     8    4   14 1
     9    4    5 ar
    10    5    6 ar
    11    5    7 1
    12    6   32 1
    13    7   16 1
    14    7    8 1
    15    8   13 ar
    16    8    9 ar
    17    9   10 ar
    18    9   15 1
    19   10   11 ar
    20   10   33 1
    21   11   12 ar
    22   11   34 1
    23   12   13 ar
    24   12   35 1
    25   13   14 1
    26   15   16 2
    27   15   18 1
    28   16   17 1
    29   18   19 2
    30   18   20 am
    31   20   21 1
    32   20   36 1
    33   21   26 ar
    34   21   22 ar
    35   22   23 ar
    36   22   37 1
    37   23   24 ar
    38   23   38 1
    39   24   25 ar
    40   24   28 1
    41   25   26 ar
    42   25   39 1
    43   26   27 1
@<TRIPOS>MOLECULE
CHEMBL293617__2
   40    44     0     0     0
SMALL
USER_CHARGES

@<TRIPOS>ATOM
      1 C1          0.0122    1.3655    0.0600 C.ar      1 <0>        -0.1129
      2 C2          1.2032    2.0673    0.0577 C.ar      1 <0>        -0.0938
      3 C3          2.4102    1.3944    0.0391 C.ar      1 <0>        -0.1106
      4 C4          2.4351    0.0071    0.0226 C.ar      1 <0>         0.0985
      5 C5          1.2310   -0.6962    0.0235 C.ar      1 <0>         0.0875
      6 C6          0.0251   -0.0177    0.0424 C.ar      1 <0>        -0.1044
      7 N1          1.2537   -2.1046    0.0049 N.am      1 <0>        -0.4917
      8 C7          2.5075   -2.7018   -0.0084 C.ar      1 <0>         0.0434
      9 C8          2.4544   -4.0738   -0.0231 C.ar      1 <0>        -0.0748
     10 C9          3.6377   -4.7800   -0.0356 C.ar      1 <0>        -0.0627
     11 C10         4.8404   -4.0888   -0.0336 C.ar      1 <0>        -0.0944
     12 C11         4.8792   -2.7028   -0.0200 C.ar      1 <0>        -0.0965
     13 C12         3.6907   -1.9901   -0.0076 C.ar      1 <0>         0.1083
     14 O1          3.6382   -0.6341    0.0053 O.3       1 <0>        -0.2390
     15 C13         0.9825   -4.4036   -0.0212 C.3       1 <0>        -0.0901
     16 C14         0.2929   -3.0492   -0.0027 C.2       1 <0>         0.5426
     17 O2         -0.9044   -2.8542    0.0036 O.2       1 <0>        -0.4700
     18 C15         0.6120   -5.1663   -1.2670 C.2       1 <0>         0.5411
     19 O3          1.4606   -5.4265   -2.0937 O.2       1 <0>        -0.4891
     20 N2         -0.6623   -5.5594   -1.4625 N.am      1 <0>        -0.6594
     21 C16        -1.0261   -6.1859   -2.6622 C.ar      1 <0>         0.1005
     22 C17        -0.1298   -7.0272   -3.3066 C.ar      1 <0>        -0.0646
     23 C18        -0.4900   -7.6439   -4.4891 C.ar      1 <0>        -0.1425
     24 C19        -1.7445   -7.4240   -5.0327 C.ar      1 <0>         0.1206
     25 C20        -2.6412   -6.5851   -4.3931 C.ar      1 <0>        -0.1731
     26 C21        -2.2874   -5.9702   -3.2058 C.ar      1 <0>         0.1101
     27 F1         -3.1642   -5.1562   -2.5781 F         1 <0>        -0.1237
     28 F2         -2.0937   -8.0286   -6.1892 F         1 <0>        -0.1280
     29 H1         -0.9279    1.8968    0.0801 H         1 <0>         0.1396
     30 H2          1.1904    3.1471    0.0701 H         1 <0>         0.1423
     31 H3          3.3365    1.9498    0.0372 H         1 <0>         0.1468
     32 H4         -0.9046   -0.5672    0.0429 H         1 <0>         0.1467
     33 H5          3.6288   -5.8599   -0.0465 H         1 <0>         0.1425
     34 H6          5.7675   -4.6427   -0.0424 H         1 <0>         0.1470
     35 H7          5.8263   -2.1838   -0.0187 H         1 <0>         0.1501
     36 H8          0.7215   -4.9761    0.8689 H         1 <0>         0.1649
     37 H9         -1.3276   -5.4086   -0.7729 H         1 <0>         0.4223
     38 H10         0.8490   -7.1993   -2.8839 H         1 <0>         0.1615
     39 H11         0.2079   -8.2982   -4.9904 H         1 <0>         0.1500
     40 H12        -3.6189   -6.4146   -4.8189 H         1 <0>         0.1553
@<TRIPOS>BOND
     1    1    6 ar
     2    1    2 ar
     3    1   29 1
     4    2    3 ar
     5    2   30 1
     6    3    4 ar
     7    3   31 1
     8    4   14 1
     9    4    5 ar
    10    5    6 ar
    11    5    7 1
    12    6   32 1
    13    7   16 am
    14    7    8 1
    15    8   13 ar
    16    8    9 ar
    17    9   10 ar
    18    9   15 1
    19   10   11 ar
    20   10   33 1
    21   11   12 ar
    22   11   34 1
    23   12   13 ar
    24   12   35 1
    25   13   14 1
    26   15   16 1
    27   15   18 1
    28   15   36 1
    29   16   17 2
    30   18   19 2
    31   18   20 am
    32   20   21 1
    33   20   37 1
    34   21   26 ar
    35   21   22 ar
    36   22   23 ar
    37   22   38 1
    38   23   24 ar
    39   23   39 1
    40   24   25 ar
    41   24   28 1
    42   25   26 ar
    43   25   40 1
    44   26   27 1
@<TRIPOS>MOLECULE
CHEMBL16996
   52    55     0     0     0
SMALL
USER_CHARGES

@<TRIPOS>ATOM
      1 C1         -1.3102    0.0112   -0.0792 C.3       1 <0>         0.0233
      2 O1          0.1108   -0.1300   -0.1331 O.3       1 <0>        -0.3070
      3 C2          0.7135   -0.7183    0.9341 C.ar      1 <0>         0.1090
      4 C3         -0.0507   -1.1549    2.0070 C.ar      1 <0>        -0.1815
      5 C4          0.5568   -1.7526    3.0914 C.ar      1 <0>        -0.0610
      6 C5          1.9419   -1.9186    3.1100 C.ar      1 <0>        -0.0398
      7 C6          2.7085   -1.4791    2.0305 C.ar      1 <0>        -0.0791
      8 C7          2.0934   -0.8863    0.9457 C.ar      1 <0>         0.0674
      9 F1          2.8336   -0.4647   -0.1029 F         1 <0>        -0.1293
     10 C8          2.5969   -2.5597    4.2732 C.2       1 <0>         0.1862
     11 C9          2.0464   -3.6935    4.8603 C.2       1 <0>        -0.2079
     12 S1          3.2316   -3.9983    6.1640 S.3       1 <0>         0.0194
     13 C10         4.3160   -2.6226    5.8099 C.2       1 <0>         0.3899
     14 N1          3.7194   -2.0677    4.7699 N.2       1 <0>        -0.5659
     15 N2          5.4795   -2.2411    6.4539 N.pl3     1 <0>        -0.6644
     16 C11         6.2209   -1.0651    5.9914 C.3       1 <0>         0.1741
     17 C12         7.4397   -0.8679    6.8555 C.ar      1 <0>        -0.1184
     18 C13         7.3604   -0.0894    7.9950 C.ar      1 <0>        -0.0967
     19 C14         8.4784    0.0915    8.7876 C.ar      1 <0>        -0.1217
     20 C15         9.6756   -0.5064    8.4409 C.ar      1 <0>        -0.1061
     21 C16         9.7546   -1.2856    7.3018 C.ar      1 <0>        -0.1217
     22 C17         8.6355   -1.4700    6.5115 C.ar      1 <0>        -0.0966
     23 C18         0.8234   -4.4386    4.5057 C.ar      1 <0>         0.0782
     24 C19         0.5821   -4.8007    3.1779 C.ar      1 <0>        -0.1171
     25 C20        -0.5631   -5.4976    2.8539 C.ar      1 <0>        -0.0157
     26 C21        -1.4721   -5.8383    3.8402 C.ar      1 <0>        -0.6786
     27 C22        -1.2397   -5.4830    5.1574 C.ar      1 <0>        -0.0102
     28 C23        -0.0963   -4.7907    5.4969 C.ar      1 <0>        -0.1307
     29 S2         -2.9327   -6.7282    3.4168 S.o2      1 <0>         2.7004
     30 O2         -3.8864   -6.4506    4.4330 O.2       1 <0>        -0.9620
     31 O3         -3.1846   -6.4652    2.0432 O.2       1 <0>        -0.9594
     32 N3         -2.5742   -8.3408    3.5319 N.pl3     1 <0>        -1.2481
     33 H1         -1.5824    0.6198    0.7831 H         1 <0>         0.0596
     34 H2         -1.6621    0.4944   -0.9906 H         1 <0>         0.1057
     35 H3         -1.7699   -0.9730    0.0110 H         1 <0>         0.0614
     36 H4         -1.1229   -1.0261    1.9930 H         1 <0>         0.1438
     37 H5         -0.0393   -2.0915    3.9258 H         1 <0>         0.1332
     38 H6          3.7810   -1.6058    2.0416 H         1 <0>         0.1462
     39 H7          5.8044   -2.7521    7.2116 H         1 <0>         0.4224
     40 H8          6.5293   -1.2139    4.9566 H         1 <0>         0.0825
     41 H9          5.5824   -0.1841    6.0572 H         1 <0>         0.0825
     42 H10         6.4251    0.3777    8.2659 H         1 <0>         0.1252
     43 H11         8.4167    0.7003    9.6776 H         1 <0>         0.1263
     44 H12        10.5493   -0.3645    9.0597 H         1 <0>         0.1255
     45 H13        10.6900   -1.7524    7.0307 H         1 <0>         0.1263
     46 H14         8.6963   -2.0818    5.6236 H         1 <0>         0.1253
     47 H15         1.2905   -4.5351    2.4072 H         1 <0>         0.1363
     48 H16        -0.7511   -5.7778    1.8280 H         1 <0>         0.1465
     49 H17        -1.9535   -5.7523    5.9219 H         1 <0>         0.1463
     50 H18         0.0858   -4.5177    6.5259 H         1 <0>         0.1361
     51 H19        -3.2676   -8.9760    3.7700 H         1 <0>         0.4222
     52 H20        -1.6709   -8.6502    3.3613 H         1 <0>         0.4176
@<TRIPOS>BOND
     1    1    2 1
     2    1   33 1
     3    1   34 1
     4    1   35 1
     5    2    3 1
     6    3    8 ar
     7    3    4 ar
     8    4    5 ar
     9    4   36 1
    10    5    6 ar
    11    5   37 1
    12    6    7 ar
    13    6   10 1
    14    7    8 ar
    15    7   38 1
    16    8    9 1
    17   10   14 1
    18   10   11 2
    19   11   12 1
    20   11   23 1
    21   12   13 1
    22   13   14 2
    23   13   15 1
    24   15   16 1
    25   15   39 1
    26   16   17 1
    27   16   40 1
    28   16   41 1
    29   17   22 ar
    30   17   18 ar
    31   18   19 ar
    32   18   42 1
    33   19   20 ar
    34   19   43 1
    35   20   21 ar
    36   20   44 1
    37   21   22 ar
    38   21   45 1
    39   22   46 1
    40   23   28 ar
    41   23   24 ar
    42   24   25 ar
    43   24   47 1
    44   25   26 ar
    45   25   48 1
    46   26   27 ar
    47   26   29 1
    48   27   28 ar
    49   27   49 1
    50   28   50 1
    51   29   30 2
    52   29   31 2
    53   29   32 1
    54   32   51 1
    55   32   52 1
@<TRIPOS>MOLECULE
CHEMBL43520
   33    35     0     0     0
SMALL
USER_CHARGES

@<TRIPOS>ATOM
      1 C1         -4.1398   -0.6573    4.4277 C.3       1 <0>        -0.0742
      2 C2         -3.4923   -1.8341    3.7445 C.2       1 <0>         0.0745
      3 C3         -4.2147   -2.9137    3.3589 C.2       1 <0>        -0.2745
      4 S1         -2.9365   -3.9300    2.6371 S.3       1 <0>         0.1269
      5 C4         -1.6380   -2.8914    2.8975 C.2       1 <0>         0.0414
      6 N1         -2.1964   -1.8564    3.4901 N.2       1 <0>        -0.5231
      7 S2          0.0559   -3.1285    2.4744 S.3       1 <0>         0.1743
      8 C5          0.1144   -4.7782    1.8581 C.ar      1 <0>        -0.2597
      9 C6          0.2125   -5.0038    0.4974 C.ar      1 <0>         0.0850
     10 C7          0.2587   -6.3137    0.0125 C.ar      1 <0>        -0.3199
     11 C8          0.2050   -7.3872    0.9102 C.ar      1 <0>        -0.0250
     12 C9          0.1067   -7.1607    2.2608 C.ar      1 <0>        -0.2285
     13 C10         0.0672   -5.8573    2.7461 C.ar      1 <0>         0.3683
     14 N2         -0.0255   -5.6273    4.1163 N.2       1 <0>        -1.0563
     15 S3         -0.0814   -6.9050    5.1684 S.o2      1 <0>         2.5288
     16 O1         -1.2909   -7.5811    4.8537 O.2       1 <0>        -1.0160
     17 O2          1.1729   -7.5553    5.0160 O.2       1 <0>        -1.0173
     18 C11        -0.1976   -6.1495    6.8135 C.3       1 <0>        -0.6344
     19 C12         0.2761   -8.6385    0.0716 C.3       1 <0>         0.0895
     20 O3          0.3688   -8.2151   -1.2912 O.3       1 <0>        -0.3278
     21 C13         0.3601   -6.8725   -1.3447 C.2       1 <0>         0.5336
     22 O4          0.4257   -6.2158   -2.3651 O.2       1 <0>        -0.4822
     23 H1         -4.4675    0.0629    3.6781 H         1 <0>         0.0693
     24 H2         -4.9999   -0.9995    5.0033 H         1 <0>         0.0691
     25 H3         -3.4204   -0.1842    5.0960 H         1 <0>         0.0707
     26 H4         -5.2724   -3.1066    3.4607 H         1 <0>         0.1856
     27 H5          0.2531   -4.1705   -0.1884 H         1 <0>         0.1328
     28 H6          0.0658   -7.9939    2.9467 H         1 <0>         0.1210
     29 H7         -1.0998   -5.5404    6.8706 H         1 <0>         0.1181
     30 H8         -0.2393   -6.9324    7.5707 H         1 <0>         0.1071
     31 H9          0.6763   -5.5217    6.9876 H         1 <0>         0.1208
     32 H10         1.1576   -9.2195    0.3425 H         1 <0>         0.1112
     33 H11        -0.6240   -9.2361    0.2162 H         1 <0>         0.1110
@<TRIPOS>BOND
     1    1    2 1
     2    1   23 1
     3    1   24 1
     4    1   25 1
     5    2    6 1
     6    2    3 2
     7    3    4 1
     8    3   26 1
     9    4    5 1
    10    5    6 2
    11    5    7 1
    12    7    8 1
    13    8   13 ar
    14    8    9 ar
    15    9   10 ar
    16    9   27 1
    17   10   21 1
    18   10   11 ar
    19   11   12 ar
    20   11   19 1
    21   12   13 ar
    22   12   28 1
    23   13   14 1
    24   14   15 1
    25   15   16 2
    26   15   17 2
    27   15   18 1
    28   18   29 1
    29   18   30 1
    30   18   31 1
    31   19   20 1
    32   19   32 1
    33   19   33 1
    34   20   21 1
    35   21   22 2
@<TRIPOS>MOLECULE
CHEMBL325894
   40    43     0     0     0
SMALL
USER_CHARGES

@<TRIPOS>ATOM
      1 C1         -0.0225    1.8097    0.0120 C.3       1 <0>        -0.6494
      2 S1          0.0021   -0.0041    0.0020 S.o2      1 <0>         2.4991
      3 O1          0.8352   -0.4880    1.0465 O.2       1 <0>        -0.9319
      4 O2         -1.3147   -0.5105   -0.1678 O.2       1 <0>        -0.9321
      5 C2          0.8454   -0.4373   -1.4831 C.ar      1 <0>        -0.6556
      6 C3          0.1330   -0.6124   -2.6553 C.ar      1 <0>        -0.0043
      7 C4          0.7913   -0.9520   -3.8210 C.ar      1 <0>        -0.1339
      8 C5          2.1697   -1.1176   -3.8152 C.ar      1 <0>         0.1713
      9 C6          2.8823   -0.9412   -2.6368 C.ar      1 <0>        -0.1243
     10 C7          2.2190   -0.5961   -1.4754 C.ar      1 <0>        -0.0036
     11 N1          2.8405   -1.4627   -4.9965 N.pl3     1 <0>        -0.4168
     12 C8          2.5152   -2.4722   -5.8460 C.2       1 <0>         0.2231
     13 N2          3.3693   -2.4847   -6.8341 N.2       1 <0>        -0.4671
     14 C9          4.2644   -1.5035   -6.6679 C.2       1 <0>         0.0721
     15 C10         3.9532   -0.8385   -5.5213 C.2       1 <0>         0.0536
     16 C11         4.6691    0.3218   -4.9492 C.ar      1 <0>        -0.0597
     17 C12         3.9556    1.4178   -4.4609 C.ar      1 <0>        -0.0622
     18 C13         4.6234    2.4955   -3.9248 C.ar      1 <0>        -0.1353
     19 C14         6.0164    2.5045   -3.8648 C.ar      1 <0>         0.1222
     20 C15         6.7218    1.4134   -4.3594 C.ar      1 <0>        -0.1697
     21 C16         6.0643    0.3276   -4.8878 C.ar      1 <0>        -0.0356
     22 C17         8.1965    1.7202   -4.1815 C.3       1 <0>        -0.1115
     23 C18         8.1761    3.2429   -3.9097 C.3       1 <0>         0.0507
     24 O3          6.8601    3.4525   -3.3703 O.3       1 <0>        -0.3015
     25 Cl1         5.5867   -1.1384   -7.7319 Cl        1 <0>         0.0037
     26 H1          1.0001    2.1870    0.0043 H         1 <0>         0.1332
     27 H2         -0.5497    2.1708   -0.8711 H         1 <0>         0.1331
     28 H3         -0.5327    2.1613    0.9088 H         1 <0>         0.1364
     29 H4         -0.9393   -0.4837   -2.6591 H         1 <0>         0.1558
     30 H5          0.2343   -1.0889   -4.7361 H         1 <0>         0.1455
     31 H6          3.9546   -1.0694   -2.6292 H         1 <0>         0.1414
     32 H7          2.7733   -0.4544   -0.5594 H         1 <0>         0.1543
     33 H8          1.6857   -3.1530   -5.7241 H         1 <0>         0.2233
     34 H9          2.8765    1.4204   -4.5043 H         1 <0>         0.1275
     35 H10         4.0648    3.3397   -3.5485 H         1 <0>         0.1342
     36 H11         6.6258   -0.5173   -5.2582 H         1 <0>         0.1318
     37 H12         8.6071    1.1779   -3.3298 H         1 <0>         0.0945
     38 H13         8.7537    1.4942   -5.0907 H         1 <0>         0.0960
     39 H14         8.9398    3.5153   -3.1812 H         1 <0>         0.1107
     40 H15         8.3074    3.8023   -4.8359 H         1 <0>         0.0810
@<TRIPOS>BOND
     1    1    2 1
     2    1   26 1
     3    1   27 1
     4    1   28 1
     5    2    3 2
     6    2    4 2
     7    2    5 1
     8    5   10 ar
     9    5    6 ar
    10    6    7 ar
    11    6   29 1
    12    7    8 ar
    13    7   30 1
    14    8    9 ar
    15    8   11 1
    16    9   10 ar
    17    9   31 1
    18   10   32 1
    19   11   15 1
    20   11   12 1
    21   12   13 2
    22   12   33 1
    23   13   14 1
    24   14   15 2
    25   14   25 1
    26   15   16 1
    27   16   21 ar
    28   16   17 ar
    29   17   18 ar
    30   17   34 1
    31   18   19 ar
    32   18   35 1
    33   19   24 1
    34   19   20 ar
    35   20   21 ar
    36   20   22 1
    37   21   36 1
    38   22   23 1
    39   22   37 1
    40   22   38 1
    41   23   24 1
    42   23   39 1
    43   23   40 1
@<TRIPOS>MOLECULE
CHEMBL77714
   40    43     0     0     0
SMALL
USER_CHARGES

@<TRIPOS>ATOM
      1 C1          0.1070    1.4714    0.2126 C.ar      1 <0>        -0.1313
      2 C2          1.3277    2.1192    0.3356 C.ar      1 <0>        -0.0859
      3 C3          2.5085    1.4092    0.2925 C.ar      1 <0>        -0.1068
      4 C4          2.4841    0.0300    0.1245 C.ar      1 <0>         0.0614
      5 C5          1.2477   -0.6241    0.0002 C.ar      1 <0>        -0.1173
      6 C6          0.0608    0.1048    0.0453 C.ar      1 <0>        -0.0654
      7 C7          1.5677   -2.0521   -0.1613 C.2       1 <0>        -0.1042
      8 C8          2.9318   -2.1346   -0.1216 C.2       1 <0>         0.0727
      9 O1          3.4541   -0.9043    0.0465 O.3       1 <0>        -0.1795
     10 C9          3.7124   -3.3805   -0.2442 C.ar      1 <0>         0.0347
     11 C10         4.8141   -3.4370   -1.1015 C.ar      1 <0>        -0.1134
     12 C11         5.5395   -4.6050   -1.2107 C.ar      1 <0>        -0.0156
     13 C12         5.1784   -5.7191   -0.4736 C.ar      1 <0>        -0.6664
     14 C13         4.0885   -5.6704    0.3776 C.ar      1 <0>        -0.0145
     15 C14         3.3570   -4.5077    0.5009 C.ar      1 <0>        -0.1062
     16 S1          6.1107   -7.2071   -0.6200 S.o2      1 <0>         2.7006
     17 O2          5.2449   -8.2679   -0.2400 O.2       1 <0>        -0.9588
     18 O3          6.7501   -7.1626   -1.8883 O.2       1 <0>        -0.9593
     19 N1          7.3122   -7.1460    0.5181 N.pl3     1 <0>        -1.2491
     20 C15         0.6102   -3.1681   -0.3314 C.ar      1 <0>        -0.0349
     21 C16        -0.2560   -3.5117    0.7071 C.ar      1 <0>        -0.0738
     22 C17        -1.1467   -4.5522    0.5433 C.ar      1 <0>        -0.1505
     23 C18        -1.1822   -5.2557   -0.6500 C.ar      1 <0>         0.1066
     24 C19        -0.3241   -4.9184   -1.6844 C.ar      1 <0>        -0.1492
     25 C20         0.5668   -3.8762   -1.5328 C.ar      1 <0>        -0.0705
     26 F1         -2.0561   -6.2742   -0.8053 F         1 <0>        -0.1358
     27 H1         -0.8104    2.0400    0.2527 H         1 <0>         0.1339
     28 H2          1.3531    3.1910    0.4660 H         1 <0>         0.1392
     29 H3          3.4525    1.9249    0.3890 H         1 <0>         0.1356
     30 H4         -0.8897   -0.3988   -0.0506 H         1 <0>         0.1298
     31 H5          5.0967   -2.5684   -1.6777 H         1 <0>         0.1417
     32 H6          6.3911   -4.6503   -1.8733 H         1 <0>         0.1513
     33 H7          3.8122   -6.5439    0.9496 H         1 <0>         0.1516
     34 H8          2.5092   -4.4697    1.1690 H         1 <0>         0.1404
     35 H9          7.3874   -6.3760    1.1031 H         1 <0>         0.4173
     36 H10         7.9407   -7.8803    0.5996 H         1 <0>         0.4226
     37 H11        -0.2289   -2.9642    1.6377 H         1 <0>         0.1354
     38 H12        -1.8174   -4.8192    1.3466 H         1 <0>         0.1406
     39 H13        -0.3554   -5.4701   -2.6124 H         1 <0>         0.1403
     40 H14         1.2321   -3.6113   -2.3412 H         1 <0>         0.1325
@<TRIPOS>BOND
     1    1    6 ar
     2    1    2 ar
     3    1   27 1
     4    2    3 ar
     5    2   28 1
     6    3    4 ar
     7    3   29 1
     8    4    9 1
     9    4    5 ar
    10    5    6 ar
    11    5    7 1
    12    6   30 1
    13    7    8 2
    14    7   20 1
    15    8    9 1
    16    8   10 1
    17   10   15 ar
    18   10   11 ar
    19   11   12 ar
    20   11   31 1
    21   12   13 ar
    22   12   32 1
    23   13   14 ar
    24   13   16 1
    25   14   15 ar
    26   14   33 1
    27   15   34 1
    28   16   17 2
    29   16   18 2
    30   16   19 1
    31   19   35 1
    32   19   36 1
    33   20   25 ar
    34   20   21 ar
    35   21   22 ar
    36   21   37 1
    37   22   23 ar
    38   22   38 1
    39   23   24 ar
    40   23   26 1
    41   24   25 ar
    42   24   39 1
    43   25   40 1
@<TRIPOS>MOLECULE
CHEMBL184737
   50    53     0     0     0
SMALL
USER_CHARGES

@<TRIPOS>ATOM
      1 C1          0.2810    0.9443   -0.6781 C.3       1 <0>         0.0222
      2 O1          0.1949   -0.4817   -0.6460 O.3       1 <0>        -0.3098
      3 C2         -1.0437   -1.0217   -0.5119 C.ar      1 <0>         0.1617
      4 C3         -2.1547   -0.1920   -0.4191 C.ar      1 <0>        -0.2139
      5 C4         -3.4130   -0.7353   -0.2835 C.ar      1 <0>        -0.0297
      6 C5         -3.5716   -2.1236   -0.2393 C.ar      1 <0>        -0.1227
      7 C6         -2.4511   -2.9543   -0.3330 C.ar      1 <0>        -0.0358
      8 C7         -1.1971   -2.4023   -0.4738 C.ar      1 <0>        -0.1550
      9 C8         -4.9167   -2.7099   -0.0937 C.2       1 <0>         0.2207
     10 C9         -5.0534   -4.0655   -0.0467 C.2       1 <0>        -0.2432
     11 C10        -6.3333   -4.6349    0.0921 C.2       1 <0>         0.1059
     12 C11        -7.4417   -3.7810    0.1788 C.2       1 <0>        -0.2167
     13 C12        -7.2301   -2.3850    0.1235 C.2       1 <0>         0.5128
     14 O2         -8.1781   -1.6224    0.1969 O.2       1 <0>        -0.4570
     15 O3         -5.9844   -1.8967   -0.0044 O.3       1 <0>        -0.2569
     16 C13        -8.8071   -4.3309    0.3250 C.ar      1 <0>         0.0372
     17 C14        -9.1714   -5.0012    1.4939 C.ar      1 <0>        -0.1206
     18 C15       -10.4463   -5.5117    1.6238 C.ar      1 <0>        -0.0216
     19 C16       -11.3630   -5.3610    0.5984 C.ar      1 <0>        -0.6562
     20 C17       -11.0082   -4.6981   -0.5631 C.ar      1 <0>        -0.0188
     21 C18        -9.7385   -4.1769   -0.7031 C.ar      1 <0>        -0.1142
     22 S1        -12.9892   -6.0167    0.7722 S.o2      1 <0>         2.4988
     23 O4        -13.4287   -6.2538   -0.5581 O.2       1 <0>        -0.9356
     24 O5        -12.8505   -7.0913    1.6916 O.2       1 <0>        -0.9371
     25 C19       -13.9552   -4.6756    1.5197 C.3       1 <0>        -0.6505
     26 C20        -6.5052   -6.1042    0.1448 C.ar      1 <0>        -0.1265
     27 C21        -6.0119   -6.8398    1.2285 C.ar      1 <0>        -0.0502
     28 C22        -6.1989   -8.2107    1.2301 C.ar      1 <0>        -0.1684
     29 C23        -6.8611   -8.8050    0.1707 C.ar      1 <0>         0.1135
     30 N1         -7.3154   -8.0860   -0.8377 N.ar      1 <0>        -0.4758
     31 C24        -7.1665   -6.7781   -0.8820 C.ar      1 <0>         0.1341
     32 H1          1.3235    1.2430   -0.7883 H         1 <0>         0.1062
     33 H2         -0.2969    1.3243   -1.5205 H         1 <0>         0.0609
     34 H3         -0.1179    1.3534    0.2502 H         1 <0>         0.0608
     35 H4         -2.0311    0.8803   -0.4530 H         1 <0>         0.1396
     36 H5         -4.2759   -0.0898   -0.2110 H         1 <0>         0.1404
     37 H6         -2.5690   -4.0273   -0.2994 H         1 <0>         0.1425
     38 H7         -0.3314   -3.0434   -0.5508 H         1 <0>         0.1441
     39 H8         -4.1825   -4.7005   -0.1162 H         1 <0>         0.1624
     40 H9         -8.4565   -5.1201    2.2947 H         1 <0>         0.1299
     41 H10       -10.7294   -6.0306    2.5277 H         1 <0>         0.1441
     42 H11       -11.7283   -4.5841   -1.3599 H         1 <0>         0.1462
     43 H12        -9.4644   -3.6552   -1.6081 H         1 <0>         0.1336
     44 H13       -13.9391   -3.8062    0.8624 H         1 <0>         0.1326
     45 H14       -14.9845   -5.0047    1.6618 H         1 <0>         0.1337
     46 H15       -13.5223   -4.4099    2.4842 H         1 <0>         0.1317
     47 H16        -5.4982   -6.3500    2.0425 H         1 <0>         0.1398
     48 H17        -5.8315   -8.8106    2.0496 H         1 <0>         0.1433
     49 H18        -7.0083   -9.8749    0.1690 H         1 <0>         0.1618
     50 H19        -7.5564   -6.2230   -1.7224 H         1 <0>         0.1560
@<TRIPOS>BOND
     1    1    2 1
     2    1   32 1
     3    1   33 1
     4    1   34 1
     5    2    3 1
     6    3    8 ar
     7    3    4 ar
     8    4    5 ar
     9    4   35 1
    10    5    6 ar
    11    5   36 1
    12    6    7 ar
    13    6    9 1
    14    7    8 ar
    15    7   37 1
    16    8   38 1
    17    9   15 1
    18    9   10 2
    19   10   11 1
    20   10   39 1
    21   11   12 2
    22   11   26 1
    23   12   13 1
    24   12   16 1
    25   13   14 2
    26   13   15 1
    27   16   21 ar
    28   16   17 ar
    29   17   18 ar
    30   17   40 1
    31   18   19 ar
    32   18   41 1
    33   19   20 ar
    34   19   22 1
    35   20   21 ar
    36   20   42 1
    37   21   43 1
    38   22   23 2
    39   22   24 2
    40   22   25 1
    41   25   44 1
    42   25   45 1
    43   25   46 1
    44   26   31 ar
    45   26   27 ar
    46   27   28 ar
    47   27   47 1
    48   28   29 ar
    49   28   48 1
    50   29   30 ar
    51   29   49 1
    52   30   31 ar
    53   31   50 1
@<TRIPOS>MOLECULE
CHEMBL266599
   26    28     0     0     0
SMALL
USER_CHARGES

@<TRIPOS>ATOM
      1 C1         -0.0099    1.3851    0.1073 C.ar      1 <0>        -0.0940
      2 C2          1.1581    2.0959   -0.0955 C.ar      1 <0>        -0.0908
      3 C3          2.3716    1.4355   -0.2104 C.ar      1 <0>        -0.0420
      4 C4          2.4127    0.0535   -0.1208 C.ar      1 <0>        -0.1327
      5 C5          1.2216   -0.6713    0.0864 C.ar      1 <0>        -0.1389
      6 C6          0.0160    0.0021    0.1990 C.ar      1 <0>        -0.0401
      7 C7          1.6172   -2.0950    0.1312 C.2       1 <0>         0.5774
      8 O1          0.8654   -3.0348    0.2946 O.2       1 <0>        -0.4540
      9 N1          2.9491   -2.1754   -0.0397 N.am      1 <0>        -0.5033
     10 C8          3.4917   -0.9543   -0.1950 C.2       1 <0>         0.5779
     11 O2          4.6708   -0.7191   -0.3672 O.2       1 <0>        -0.4400
     12 C9          3.6792   -3.3792   -0.0538 C.2       1 <0>        -0.0568
     13 C10         3.4535   -4.3083   -1.0123 C.2       1 <0>         0.2102
     14 N2          4.1753   -5.4746   -1.0085 N.am      1 <0>        -0.6253
     15 C11         5.1036   -5.7031   -0.0621 C.2       1 <0>         0.6994
     16 N3          5.3485   -4.7977    0.9028 N.am      1 <0>        -0.6493
     17 C12         4.6675   -3.6343    0.9340 C.2       1 <0>         0.5586
     18 O3          4.8938   -2.8127    1.8038 O.2       1 <0>        -0.4885
     19 O4          5.7311   -6.7447   -0.0786 O.2       1 <0>        -0.5246
     20 H1         -0.9486    1.9112    0.1994 H         1 <0>         0.1454
     21 H2          1.1251    3.1731   -0.1652 H         1 <0>         0.1455
     22 H3          3.2810    1.9959   -0.3695 H         1 <0>         0.1452
     23 H4         -0.8997   -0.5481    0.3578 H         1 <0>         0.1450
     24 H5          2.7094   -4.1324   -1.7750 H         1 <0>         0.1889
     25 H6          4.0146   -6.1411   -1.6946 H         1 <0>         0.4467
     26 H7          6.0215   -4.9810    1.5769 H         1 <0>         0.4399
@<TRIPOS>BOND
     1    1    6 ar
     2    1    2 ar
     3    1   20 1
     4    2    3 ar
     5    2   21 1
     6    3    4 ar
     7    3   22 1
     8    4   10 1
     9    4    5 ar
    10    5    6 ar
    11    5    7 1
    12    6   23 1
    13    7    8 2
    14    7    9 am
    15    9   10 am
    16    9   12 1
    17   10   11 2
    18   12   17 1
    19   12   13 2
    20   13   24 1
    21   13   14 1
    22   14   15 am
    23   14   25 1
    24   15   19 2
    25   15   16 am
    26   16   26 1
    27   16   17 am
    28   17   18 2
@<TRIPOS>MOLECULE
CHEMBL266599__1
   25    27     0     0     0
SMALL
USER_CHARGES

@<TRIPOS>ATOM
      1 C1         -0.0102    1.3849    0.1068 C.ar      1 <0>        -0.1035
      2 C2          1.1579    2.0958   -0.0949 C.ar      1 <0>        -0.1010
      3 C3          2.3715    1.4355   -0.2093 C.ar      1 <0>        -0.0515
      4 C4          2.4126    0.0535   -0.1203 C.ar      1 <0>        -0.1276
      5 C5          1.2214   -0.6715    0.0858 C.ar      1 <0>        -0.1323
      6 C6          0.0157    0.0018    0.1979 C.ar      1 <0>        -0.0498
      7 C7          1.6170   -2.0951    0.1306 C.2       1 <0>         0.5666
      8 O1          0.8652   -3.0350    0.2935 O.2       1 <0>        -0.4641
      9 N1          2.9491   -2.1754   -0.0392 N.am      1 <0>        -0.4712
     10 C8          3.4917   -0.9542   -0.1937 C.2       1 <0>         0.5684
     11 O2          4.6708   -0.7189   -0.3655 O.2       1 <0>        -0.4523
     12 C9          3.6784   -3.3780   -0.0538 C.2       1 <0>        -0.2134
     13 C10         3.4530   -4.3179   -1.0211 C.2       1 <0>         0.2551
     14 N2          4.1515   -5.4534   -1.0232 N.2       1 <0>        -0.6095
     15 C11         5.0638   -5.6991   -0.1097 C.2       1 <0>         0.6166
     16 N3          5.3344   -4.8049    0.8771 N.am      1 <0>        -0.6572
     17 C12         4.6616   -3.6352    0.9267 C.2       1 <0>         0.5570
     18 O3          4.8953   -2.8192    1.8031 O.2       1 <0>        -0.5772
     19 O4          5.7454   -6.8631   -0.1523 O.3       1 <0>        -0.6562
     20 H1         -0.9490    1.9109    0.1984 H         1 <0>         0.1382
     21 H2          1.1249    3.1730   -0.1641 H         1 <0>         0.1381
     22 H3          3.2810    1.9960   -0.3675 H         1 <0>         0.1400
     23 H4         -0.9001   -0.5485    0.3558 H         1 <0>         0.1403
     24 H5          2.7087   -4.1404   -1.7833 H         1 <0>         0.1437
     25 H6          6.0116   -5.0049    1.5421 H         1 <0>         0.4030
@<TRIPOS>BOND
     1    1    6 ar
     2    1    2 ar
     3    1   20 1
     4    2    3 ar
     5    2   21 1
     6    3    4 ar
     7    3   22 1
     8    4   10 1
     9    4    5 ar
    10    5    6 ar
    11    5    7 1
    12    6   23 1
    13    7    8 2
    14    7    9 am
    15    9   10 am
    16    9   12 1
    17   10   11 2
    18   12   17 1
    19   12   13 2
    20   13   24 1
    21   13   14 1
    22   14   15 2
    23   15   19 1
    24   15   16 1
    25   16   25 1
    26   16   17 am
    27   17   18 2
@<TRIPOS>MOLECULE
CHEMBL9123
   27    29     0     0     0
SMALL
USER_CHARGES

@<TRIPOS>ATOM
      1 C1         -0.0167    1.3819    0.0096 C.ar      1 <0>        -0.0987
      2 C2          1.1651    2.0988    0.0022 C.ar      1 <0>        -0.0982
      3 C3          2.3855    1.4416   -0.0134 C.ar      1 <0>        -0.0462
      4 C4          2.4197    0.0564   -0.0211 C.ar      1 <0>        -0.1247
      5 C5          1.2146   -0.6746   -0.0131 C.ar      1 <0>        -0.1256
      6 C6          0.0021   -0.0041    0.0020 C.ar      1 <0>        -0.0459
      7 C7          1.6061   -2.0999   -0.0245 C.2       1 <0>         0.5717
      8 O1          0.8430   -3.0446   -0.0220 O.2       1 <0>        -0.4545
      9 N1          2.9492   -2.1754   -0.0382 N.am      1 <0>        -0.3650
     10 C8          3.5027   -0.9494   -0.0372 C.2       1 <0>         0.5723
     11 O2          4.6932   -0.7091   -0.0483 O.2       1 <0>        -0.4526
     12 N2          3.6757   -3.3733   -0.0514 N.am      1 <0>        -0.4435
     13 C9          4.0614   -4.0064    1.2129 C.3       1 <0>         0.1249
     14 C10         3.9993   -5.5276    1.0528 C.3       1 <0>        -0.1672
     15 C11         4.6738   -5.9200   -0.2369 C.2       1 <0>         0.4579
     16 O3          5.3269   -7.0906   -0.3178 O.3       1 <0>        -0.6609
     17 N3          4.6278   -5.1325   -1.2738 N.2       1 <0>        -0.6571
     18 C12         4.0111   -3.9396   -1.2236 C.2       1 <0>         0.6876
     19 O4          3.7555   -3.3574   -2.2612 O.2       1 <0>        -0.5781
     20 H1         -0.9613    1.9053    0.0260 H         1 <0>         0.1411
     21 H2          1.1375    3.1784    0.0082 H         1 <0>         0.1412
     22 H3          3.3057    2.0069   -0.0199 H         1 <0>         0.1427
     23 H4         -0.9244   -0.5590    0.0082 H         1 <0>         0.1426
     24 H5          5.0769   -3.7089    1.4744 H         1 <0>         0.0697
     25 H6          3.3754   -3.6948    2.0006 H         1 <0>         0.0777
     26 H7          4.5104   -6.0029    1.8901 H         1 <0>         0.1002
     27 H8          2.9581   -5.8491    1.0314 H         1 <0>         0.0885
@<TRIPOS>BOND
     1    1    6 ar
     2    1    2 ar
     3    1   20 1
     4    2    3 ar
     5    2   21 1
     6    3    4 ar
     7    3   22 1
     8    4   10 1
     9    4    5 ar
    10    5    6 ar
    11    5    7 1
    12    6   23 1
    13    7    8 2
    14    7    9 am
    15    9   10 am
    16    9   12 1
    17   10   11 2
    18   12   18 am
    19   12   13 1
    20   13   14 1
    21   13   24 1
    22   13   25 1
    23   14   15 1
    24   14   26 1
    25   14   27 1
    26   15   16 1
    27   15   17 2
    28   17   18 1
    29   18   19 2
@<TRIPOS>MOLECULE
CHEMBL140167
   44    48     0     0     0
SMALL
USER_CHARGES

@<TRIPOS>ATOM
      1 C1         -0.0169    1.3920    0.0097 C.ar      1 <0>        -0.0829
      2 C2          1.1695    2.0951    0.0021 C.ar      1 <0>        -0.1497
      3 C3          2.3789    1.4186   -0.0135 C.ar      1 <0>         0.1018
      4 C4          2.4037    0.0330   -0.0216 C.ar      1 <0>        -0.1489
      5 C5          1.2234   -0.6804   -0.0142 C.ar      1 <0>        -0.0674
      6 C6          0.0021   -0.0041    0.0020 C.ar      1 <0>        -0.0317
      7 C7         -1.2658   -0.7630    0.0105 C.2       1 <0>         0.0932
      8 C8         -1.5408   -1.8168    0.7709 C.2       1 <0>        -0.1449
      9 C9         -2.8703   -2.2425    0.4654 C.2       1 <0>        -0.1450
     10 C10        -3.3530   -1.4313   -0.4691 C.2       1 <0>         0.0932
     11 N1         -2.3777   -0.4980   -0.7672 N.pl3     1 <0>        -0.5741
     12 H1         -2.4590    0.2203   -1.4140 H         1 <0>         0.4151
     13 C11        -4.6970   -1.5093   -1.0784 C.ar      1 <0>        -0.0316
     14 C12        -5.2129   -2.7423   -1.4821 C.ar      1 <0>        -0.0675
     15 C13        -6.4680   -2.8092   -2.0498 C.ar      1 <0>        -0.1488
     16 C14        -7.2168   -1.6555   -2.2197 C.ar      1 <0>         0.1017
     17 C15        -6.7096   -0.4289   -1.8212 C.ar      1 <0>        -0.1496
     18 C16        -5.4581   -0.3510   -1.2472 C.ar      1 <0>        -0.0830
     19 F1         -8.4458   -1.7269   -2.7763 F         1 <0>        -0.1373
     20 C17        -3.3258   -3.4458    1.2617 C.3       1 <0>        -0.0122
     21 C18        -3.1827   -3.0676    2.7480 C.3       1 <0>        -0.1086
     22 C19        -1.7632   -2.6130    3.0743 C.3       1 <0>        -0.1092
     23 C20        -0.8578   -2.6552    1.8292 C.3       1 <0>        -0.0121
     24 C21        -0.8810   -4.1086    1.3197 C.3       1 <0>        -0.1087
     25 C22        -2.3003   -4.5633    0.9927 C.3       1 <0>        -0.1093
     26 F2          3.5381    2.1124   -0.0213 F         1 <0>        -0.1373
     27 H2         -0.9587    1.9202    0.0260 H         1 <0>         0.1306
     28 H3          1.1561    3.1750    0.0081 H         1 <0>         0.1384
     29 H4          3.3490   -0.4891   -0.0342 H         1 <0>         0.1404
     30 H5          1.2439   -1.7602   -0.0213 H         1 <0>         0.1379
     31 H6         -4.6300   -3.6419   -1.3505 H         1 <0>         0.1378
     32 H7         -6.8678   -3.7623   -2.3628 H         1 <0>         0.1404
     33 H8         -7.2974    0.4670   -1.9563 H         1 <0>         0.1384
     34 H9         -5.0657    0.6048   -0.9326 H         1 <0>         0.1305
     35 H10        -4.3400   -3.7491    1.0020 H         1 <0>         0.0848
     36 H11        -3.8774   -2.2599    2.9787 H         1 <0>         0.0587
     37 H12        -3.4292   -3.9341    3.3616 H         1 <0>         0.0635
     38 H13        -1.7948   -1.5930    3.4572 H         1 <0>         0.0587
     39 H14        -1.3467   -3.2672    3.8402 H         1 <0>         0.0636
     40 H15         0.1509   -2.3022    2.0438 H         1 <0>         0.0848
     41 H16        -0.2683   -4.1810    0.4211 H         1 <0>         0.0590
     42 H17        -0.4651   -4.7619    2.0867 H         1 <0>         0.0640
     43 H18        -2.5473   -5.4291    1.6072 H         1 <0>         0.0640
     44 H19        -2.3507   -4.8477   -0.0583 H         1 <0>         0.0591
@<TRIPOS>BOND
     1    1    6 ar
     2    1    2 ar
     3    1   27 1
     4    2    3 ar
     5    2   28 1
     6    3    4 ar
     7    3   26 1
     8    4    5 ar
     9    4   29 1
    10    5    6 ar
    11    5   30 1
    12    6    7 1
    13    7   11 1
    14    7    8 2
    15    8   23 1
    16    8    9 1
    17    9   10 2
    18    9   20 1
    19   10   11 1
    20   10   13 1
    21   11   12 1
    22   13   18 ar
    23   13   14 ar
    24   14   15 ar
    25   14   31 1
    26   15   16 ar
    27   15   32 1
    28   16   17 ar
    29   16   19 1
    30   17   18 ar
    31   17   33 1
    32   18   34 1
    33   20   25 1
    34   20   21 1
    35   20   35 1
    36   21   22 1
    37   21   36 1
    38   21   37 1
    39   22   23 1
    40   22   38 1
    41   22   39 1
    42   23   24 1
    43   23   40 1
    44   24   25 1
    45   24   41 1
    46   24   42 1
    47   25   43 1
    48   25   44 1
@<TRIPOS>MOLECULE
CHEMBL49249
   50    51     0     0     0
SMALL
USER_CHARGES

@<TRIPOS>ATOM
      1 C1          0.0523    0.9202   -0.1393 C.3       1 <0>        -0.1488
      2 C2         -0.1612   -0.5758   -0.3785 C.3       1 <0>        -0.0214
      3 C3          0.4518   -1.3696    0.7770 C.3       1 <0>        -0.1431
      4 C4         -1.6603   -0.8703   -0.4608 C.3       1 <0>        -0.1431
      5 C5          0.5014   -0.9775   -1.6710 C.ar      1 <0>        -0.0923
      6 C6          1.1703   -0.0370   -2.4215 C.ar      1 <0>        -0.0805
      7 C7          1.7859   -0.4118   -3.6221 C.ar      1 <0>        -0.1009
      8 C8          1.7172   -1.7425   -4.0526 C.ar      1 <0>        -0.0872
      9 C9          1.0456   -2.6747   -3.2942 C.ar      1 <0>        -0.0952
     10 C10         0.4408   -2.2982   -2.1005 C.ar      1 <0>         0.1410
     11 O1         -0.2154   -3.2228   -1.3537 O.3       1 <0>        -0.4829
     12 C11         0.9708   -4.1072   -3.7561 C.3       1 <0>        -0.0211
     13 C12         1.7153   -4.2543   -5.0846 C.3       1 <0>        -0.1510
     14 C13         1.6151   -5.0157   -2.7071 C.3       1 <0>        -0.1438
     15 C14        -0.4941   -4.5061   -3.9456 C.3       1 <0>        -0.1427
     16 C15         2.5005    0.5873   -4.4271 C.2       1 <0>         0.0201
     17 C16         3.7412    0.3133   -4.9035 C.2       1 <0>        -0.0185
     18 C17         4.5088    1.0849   -5.8934 C.2       1 <0>         0.5522
     19 O2          4.1584    2.1058   -6.4558 O.2       1 <0>        -0.4473
     20 N1          5.6788    0.4335   -6.0517 N.am      1 <0>        -0.6321
     21 C18         5.7053   -0.6523   -5.2638 C.2       1 <0>         0.5210
     22 S1          7.0160   -1.7496   -5.1695 S.2       1 <0>        -0.5247
     23 N2          4.5685   -0.7615   -4.5539 N.pl3     1 <0>        -0.4897
     24 C19         4.2507   -1.8177   -3.5897 C.3       1 <0>         0.0770
     25 H1          1.1204    1.1300   -0.0807 H         1 <0>         0.0589
     26 H2         -0.3843    1.4857   -0.9625 H         1 <0>         0.0590
     27 H3         -0.4269    1.2108    0.7955 H         1 <0>         0.0621
     28 H4         -0.0275   -1.0790    1.7119 H         1 <0>         0.0564
     29 H5          0.2996   -2.4354    0.6066 H         1 <0>         0.0758
     30 H6          1.5198   -1.1598    0.8357 H         1 <0>         0.0517
     31 H7         -2.0970   -0.3048   -1.2840 H         1 <0>         0.0553
     32 H8         -1.8124   -1.9361   -0.6312 H         1 <0>         0.0583
     33 H9         -2.1395   -0.5797    0.4741 H         1 <0>         0.0629
     34 H10         1.2200    0.9881   -2.0850 H         1 <0>         0.1386
     35 H11         2.1899   -2.0368   -4.9779 H         1 <0>         0.1333
     36 H12        -1.1523   -3.3142   -1.5750 H         1 <0>         0.3869
     37 H13         2.7756   -4.0534   -4.9310 H         1 <0>         0.0580
     38 H14         1.5887   -5.2691   -5.4618 H         1 <0>         0.0650
     39 H15         1.3122   -3.5450   -5.8075 H         1 <0>         0.0575
     40 H16         1.0847   -4.9109   -1.7607 H         1 <0>         0.0766
     41 H17         1.5610   -6.0518   -3.0412 H         1 <0>         0.0575
     42 H18         2.6587   -4.7315   -2.5721 H         1 <0>         0.0527
     43 H19        -0.9532   -3.8589   -4.6930 H         1 <0>         0.0549
     44 H20        -0.5482   -5.5423   -4.2797 H         1 <0>         0.0634
     45 H21        -1.0246   -4.4014   -2.9992 H         1 <0>         0.0585
     46 H22         2.0386    1.5400   -4.6399 H         1 <0>         0.1673
     47 H23         6.3941    0.7085   -6.6464 H         1 <0>         0.4501
     48 H24         3.7281   -2.6282   -4.0978 H         1 <0>         0.0902
     49 H25         5.1729   -2.1988   -3.1511 H         1 <0>         0.1066
     50 H26         3.6146   -1.4121   -2.8030 H         1 <0>         0.0976
@<TRIPOS>BOND
     1    1    2 1
     2    1   25 1
     3    1   26 1
     4    1   27 1
     5    2    3 1
     6    2    4 1
     7    2    5 1
     8    3   28 1
     9    3   29 1
    10    3   30 1
    11    4   31 1
    12    4   32 1
    13    4   33 1
    14    5   10 ar
    15    5    6 ar
    16    6    7 ar
    17    6   34 1
    18    7    8 ar
    19    7   16 1
    20    8    9 ar
    21    8   35 1
    22    9   10 ar
    23    9   12 1
    24   10   11 1
    25   11   36 1
    26   12   13 1
    27   12   14 1
    28   12   15 1
    29   13   37 1
    30   13   38 1
    31   13   39 1
    32   14   40 1
    33   14   41 1
    34   14   42 1
    35   15   43 1
    36   15   44 1
    37   15   45 1
    38   16   17 2
    39   16   46 1
    40   17   23 1
    41   17   18 1
    42   18   19 2
    43   18   20 am
    44   20   21 1
    45   20   47 1
    46   21   22 2
    47   21   23 1
    48   23   24 1
    49   24   48 1
    50   24   49 1
    51   24   50 1
@<TRIPOS>MOLECULE
CHEMBL49249__1
   49    50     0     0     0
SMALL
USER_CHARGES

@<TRIPOS>ATOM
      1 C1          0.0624    0.9381   -0.1188 C.3       1 <0>        -0.1471
      2 C2         -0.1534   -0.5580   -0.3555 C.3       1 <0>        -0.0189
      3 C3          0.4616   -1.3510    0.7993 C.3       1 <0>        -0.1407
      4 C4         -1.6531   -0.8508   -0.4337 C.3       1 <0>        -0.1401
      5 C5          0.5054   -0.9620   -1.6493 C.ar      1 <0>        -0.0948
      6 C6          1.1731   -0.0234   -2.4023 C.ar      1 <0>        -0.0981
      7 C7          1.7853   -0.4007   -3.6052 C.ar      1 <0>        -0.0577
      8 C8          1.7133   -1.7329   -4.0340 C.ar      1 <0>        -0.0920
      9 C9          1.0428   -2.6627   -3.2726 C.ar      1 <0>        -0.0944
     10 C10         0.4422   -2.2836   -2.0771 C.ar      1 <0>         0.1151
     11 O1         -0.2128   -3.2063   -1.3273 O.3       1 <0>        -0.4846
     12 C11         0.9641   -4.0956   -3.7326 C.3       1 <0>        -0.0191
     13 C12         1.7025   -4.2451   -5.0642 C.3       1 <0>        -0.1511
     14 C13         1.6119   -5.0037   -2.6854 C.3       1 <0>        -0.1410
     15 C14        -0.5022   -4.4928   -3.9151 C.3       1 <0>        -0.1392
     16 C15         2.4980    0.5950   -4.4123 C.2       1 <0>        -0.0714
     17 C16         3.7419    0.3180   -4.8930 C.2       1 <0>         0.0394
     18 C17         4.4780    1.0659   -5.8505 C.2       1 <0>         0.4643
     19 O2          4.0725    2.2004   -6.4643 O.3       1 <0>        -0.5897
     20 N1          5.6315    0.4490   -6.0299 N.2       1 <0>        -0.6054
     21 C18         5.6953   -0.6392   -5.2614 C.2       1 <0>         0.5198
     22 S1          7.0219   -1.7192   -5.1932 S.2       1 <0>        -0.6704
     23 N2          4.5624   -0.7581   -4.5422 N.pl3     1 <0>        -0.5473
     24 C19         4.2487   -1.8155   -3.5779 C.3       1 <0>         0.0915
     25 H1          1.1308    1.1467   -0.0631 H         1 <0>         0.0595
     26 H2         -0.3757    1.5031   -0.9415 H         1 <0>         0.0588
     27 H3         -0.4141    1.2303    0.8170 H         1 <0>         0.0567
     28 H4         -0.0149   -1.0588    1.7351 H         1 <0>         0.0510
     29 H5          0.3078   -2.4169    0.6307 H         1 <0>         0.0747
     30 H6          1.5300   -1.1424    0.8550 H         1 <0>         0.0513
     31 H7         -2.0912   -0.2858   -1.2564 H         1 <0>         0.0538
     32 H8         -1.8069   -1.9166   -0.6024 H         1 <0>         0.0575
     33 H9         -2.1296   -0.5586    0.5021 H         1 <0>         0.0574
     34 H10         1.2251    1.0019   -2.0670 H         1 <0>         0.1325
     35 H11         2.1829   -2.0293   -4.9603 H         1 <0>         0.1311
     36 H12        -1.1504   -3.2968   -1.5457 H         1 <0>         0.3773
     37 H13         2.7640   -4.0470   -4.9153 H         1 <0>         0.0617
     38 H14         1.5716   -5.2598   -5.4403 H         1 <0>         0.0594
     39 H15         1.2981   -3.5352   -5.7856 H         1 <0>         0.0576
     40 H16         1.0858   -4.8972   -1.7367 H         1 <0>         0.0741
     41 H17         1.5549   -6.0401   -3.0181 H         1 <0>         0.0523
     42 H18         2.6564   -4.7207   -2.5553 H         1 <0>         0.0534
     43 H19        -0.9637   -3.8459   -4.6612 H         1 <0>         0.0533
     44 H20        -0.5591   -5.5293   -4.2478 H         1 <0>         0.0583
     45 H21        -1.0283   -4.3863   -2.9665 H         1 <0>         0.0568
     46 H22         2.0365    1.5478   -4.6256 H         1 <0>         0.1530
     47 H23         3.7268   -2.6268   -4.0853 H         1 <0>         0.0679
     48 H24         5.1727   -2.1948   -3.1414 H         1 <0>         0.0887
     49 H25         3.6134   -1.4116   -2.7897 H         1 <0>         0.0747
@<TRIPOS>BOND
     1    1    2 1
     2    1   25 1
     3    1   26 1
     4    1   27 1
     5    2    3 1
     6    2    4 1
     7    2    5 1
     8    3   28 1
     9    3   29 1
    10    3   30 1
    11    4   31 1
    12    4   32 1
    13    4   33 1
    14    5   10 ar
    15    5    6 ar
    16    6    7 ar
    17    6   34 1
    18    7    8 ar
    19    7   16 1
    20    8    9 ar
    21    8   35 1
    22    9   10 ar
    23    9   12 1
    24   10   11 1
    25   11   36 1
    26   12   13 1
    27   12   14 1
    28   12   15 1
    29   13   37 1
    30   13   38 1
    31   13   39 1
    32   14   40 1
    33   14   41 1
    34   14   42 1
    35   15   43 1
    36   15   44 1
    37   15   45 1
    38   16   17 2
    39   16   46 1
    40   17   23 1
    41   17   18 1
    42   18   19 1
    43   18   20 2
    44   20   21 1
    45   21   22 2
    46   21   23 1
    47   23   24 1
    48   24   47 1
    49   24   48 1
    50   24   49 1
@<TRIPOS>MOLECULE
CHEMBL48568
   46    47     0     0     0
SMALL
USER_CHARGES

@<TRIPOS>ATOM
      1 C1          0.0259    1.5244    0.0357 C.3       1 <0>        -0.1468
      2 C2          0.0276   -0.0055    0.0160 C.3       1 <0>        -0.0219
      3 C3          0.7719   -0.5306    1.2453 C.3       1 <0>        -0.1421
      4 C4         -1.4142   -0.5173    0.0356 C.3       1 <0>        -0.1424
      5 C5          0.7161   -0.4911   -1.2335 C.ar      1 <0>        -0.0981
      6 C6          1.2263    0.4168   -2.1338 C.ar      1 <0>        -0.0807
      7 C7          1.8658   -0.0357   -3.2943 C.ar      1 <0>        -0.1029
      8 C8          1.9826   -1.4105   -3.5324 C.ar      1 <0>        -0.0748
      9 C9          1.4688   -2.3097   -2.6254 C.ar      1 <0>        -0.1004
     10 C10         0.8399   -1.8550   -1.4720 C.ar      1 <0>         0.1448
     11 O1          0.3398   -2.7460   -0.5782 O.3       1 <0>        -0.4837
     12 C11         1.5934   -3.7897   -2.8805 C.3       1 <0>        -0.0208
     13 C12         2.3255   -4.0192   -4.2042 C.3       1 <0>        -0.1486
     14 C13         2.3827   -4.4389   -1.7419 C.3       1 <0>        -0.1431
     15 C14         0.1983   -4.4137   -2.9544 C.3       1 <0>        -0.1430
     16 C15         2.4117    0.9284   -4.2587 C.2       1 <0>         0.0326
     17 C16         2.1909    2.2549   -4.0898 C.2       1 <0>        -0.0710
     18 C17         2.5630    3.3399   -5.0083 C.2       1 <0>         0.5435
     19 O2          3.1331    3.2315   -6.0782 O.2       1 <0>        -0.4489
     20 N1          2.1429    4.4813   -4.4232 N.am      1 <0>        -0.6795
     21 C18         1.5596    4.1812   -3.2509 C.2       1 <0>         0.6491
     22 O3          1.0796    4.9982   -2.4901 O.2       1 <0>        -0.4574
     23 O4          1.5731    2.8575   -3.0369 O.3       1 <0>        -0.2398
     24 H1          1.0530    1.8890    0.0218 H         1 <0>         0.0591
     25 H2         -0.5043    1.8984   -0.8401 H         1 <0>         0.0589
     26 H3         -0.4721    1.8756    0.9394 H         1 <0>         0.0613
     27 H4          0.2739   -0.1794    2.1491 H         1 <0>         0.0561
     28 H5          0.7730   -1.6205    1.2313 H         1 <0>         0.0747
     29 H6          1.7990   -0.1659    1.2314 H         1 <0>         0.0515
     30 H7         -1.9444   -0.1433   -0.8402 H         1 <0>         0.0547
     31 H8         -1.4130   -1.6072    0.0215 H         1 <0>         0.0575
     32 H9         -1.9122   -0.1661    0.9393 H         1 <0>         0.0627
     33 H10         1.1332    1.4762   -1.9455 H         1 <0>         0.1545
     34 H11         2.4746   -1.7649   -4.4261 H         1 <0>         0.1389
     35 H12        -0.5780   -2.9995   -0.7470 H         1 <0>         0.3863
     36 H13         3.3193   -3.5747   -4.1516 H         1 <0>         0.0598
     37 H14         2.4156   -5.0897   -4.3888 H         1 <0>         0.0615
     38 H15         1.7631   -3.5568   -5.0154 H         1 <0>         0.0590
     39 H16         1.8611   -4.2754   -0.7989 H         1 <0>         0.0753
     40 H17         2.4728   -5.5094   -1.9264 H         1 <0>         0.0557
     41 H18         3.3766   -3.9944   -1.6893 H         1 <0>         0.0519
     42 H19        -0.3640   -3.9512   -3.7656 H         1 <0>         0.0552
     43 H20         0.2884   -5.4842   -3.1390 H         1 <0>         0.0624
     44 H21        -0.3233   -4.2502   -2.0114 H         1 <0>         0.0577
     45 H22         2.9891    0.5802   -5.1024 H         1 <0>         0.1726
     46 H23         2.2459    5.3736   -4.7894 H         1 <0>         0.4488
@<TRIPOS>BOND
     1    1    2 1
     2    1   24 1
     3    1   25 1
     4    1   26 1
     5    2    3 1
     6    2    4 1
     7    2    5 1
     8    3   27 1
     9    3   28 1
    10    3   29 1
    11    4   30 1
    12    4   31 1
    13    4   32 1
    14    5   10 ar
    15    5    6 ar
    16    6    7 ar
    17    6   33 1
    18    7    8 ar
    19    7   16 1
    20    8    9 ar
    21    8   34 1
    22    9   10 ar
    23    9   12 1
    24   10   11 1
    25   11   35 1
    26   12   13 1
    27   12   14 1
    28   12   15 1
    29   13   36 1
    30   13   37 1
    31   13   38 1
    32   14   39 1
    33   14   40 1
    34   14   41 1
    35   15   42 1
    36   15   43 1
    37   15   44 1
    38   16   17 2
    39   16   45 1
    40   17   23 1
    41   17   18 1
    42   18   19 2
    43   18   20 am
    44   20   21 am
    45   20   46 1
    46   21   22 2
    47   21   23 1
@<TRIPOS>MOLECULE
CHEMBL469785
   50    52     0     0     0
SMALL
USER_CHARGES

@<TRIPOS>ATOM
      1 C1         -0.0187    1.5258    0.0104 C.3       1 <0>        -0.1507
      2 C2          0.0021   -0.0041    0.0020 C.3       1 <0>        -0.1428
      3 C3         -1.4333   -0.5336    0.0129 C.3       1 <0>         0.1350
      4 N1         -1.4134   -1.9985    0.0048 N.am      1 <0>        -0.6160
      5 C4         -1.4072   -2.8551   -1.1871 C.3       1 <0>         0.1272
      6 C5         -1.3856   -4.2780   -0.6784 C.2       1 <0>        -0.0520
      7 C6         -1.3804   -4.2050    0.6801 C.2       1 <0>        -0.1092
      8 C7         -1.3919   -2.7952    1.0883 C.2       1 <0>         0.5458
      9 O1         -1.3855   -2.4039    2.2400 O.2       1 <0>        -0.5139
     10 C8         -1.3605   -5.3644    1.6012 C.ar      1 <0>        -0.0244
     11 C9         -2.4394   -6.2479    1.6384 C.ar      1 <0>        -0.1033
     12 C10        -2.4146   -7.3265    2.4984 C.ar      1 <0>        -0.0980
     13 C11        -1.3230   -7.5325    3.3231 C.ar      1 <0>        -0.0860
     14 C12        -0.2500   -6.6597    3.2909 C.ar      1 <0>        -0.0965
     15 C13        -0.2603   -5.5807    2.4311 C.ar      1 <0>        -0.0919
     16 C14        -1.3030   -8.7120    4.2608 C.3       1 <0>         0.1148
     17 O2         -0.7157   -9.8352    3.6009 O.3       1 <0>        -0.5680
     18 C15        -1.3734   -5.5013   -1.4920 C.ar      1 <0>         0.0158
     19 C16        -0.2745   -5.7923   -2.3087 C.ar      1 <0>        -0.1172
     20 C17        -0.2709   -6.9425   -3.0686 C.ar      1 <0>        -0.0203
     21 C18        -1.3501   -7.8083   -3.0259 C.ar      1 <0>        -0.6530
     22 C19        -2.4410   -7.5277   -2.2213 C.ar      1 <0>        -0.0191
     23 C20        -2.4580   -6.3850   -1.4504 C.ar      1 <0>        -0.1153
     24 S1         -1.3355   -9.2753   -4.0017 S.o2      1 <0>         2.4980
     25 O3         -2.7063   -9.5783   -4.2215 O.2       1 <0>        -0.9355
     26 O4         -0.4756   -8.9765   -5.0928 O.2       1 <0>        -0.9358
     27 C21        -0.5799  -10.5354   -2.9377 C.3       1 <0>        -0.6494
     28 H1          1.0039    1.9031    0.0027 H         1 <0>         0.0604
     29 H2         -0.5459    1.8868   -0.8726 H         1 <0>         0.0574
     30 H3         -0.5289    1.8773    0.9072 H         1 <0>         0.0584
     31 H4          0.5123   -0.3556   -0.8948 H         1 <0>         0.0651
     32 H5          0.5293   -0.3651    0.8851 H         1 <0>         0.0676
     33 H6         -1.9435   -0.1821    0.9097 H         1 <0>         0.0885
     34 H7         -1.9605   -0.1726   -0.8702 H         1 <0>         0.0849
     35 H8         -2.3061   -2.6816   -1.7786 H         1 <0>         0.1063
     36 H9         -0.5187   -2.6573   -1.7867 H         1 <0>         0.1046
     37 H10        -3.2923   -6.0878    0.9956 H         1 <0>         0.1250
     38 H11        -3.2493   -8.0113    2.5281 H         1 <0>         0.1274
     39 H12         0.5991   -6.8256    3.9374 H         1 <0>         0.1269
     40 H13         0.5799   -4.9026    2.4037 H         1 <0>         0.1244
     41 H14        -0.7168   -8.4630    5.1454 H         1 <0>         0.0566
     42 H15        -2.3226   -8.9575    4.5578 H         1 <0>         0.0567
     43 H16        -0.6699  -10.6323    4.1465 H         1 <0>         0.3822
     44 H17         0.5680   -5.1175   -2.3436 H         1 <0>         0.1375
     45 H18         0.5762   -7.1686   -3.6992 H         1 <0>         0.1476
     46 H19        -3.2793   -8.2081   -2.1943 H         1 <0>         0.1476
     47 H20        -3.3078   -6.1699   -0.8195 H         1 <0>         0.1369
     48 H21        -1.1801  -10.6569   -2.0359 H         1 <0>         0.1329
     49 H22        -0.5335  -11.4833   -3.4737 H         1 <0>         0.1345
     50 H23         0.4279  -10.2230   -2.6640 H         1 <0>         0.1323
@<TRIPOS>BOND
     1    1    2 1
     2    1   28 1
     3    1   29 1
     4    1   30 1
     5    2    3 1
     6    2   31 1
     7    2   32 1
     8    3    4 1
     9    3   33 1
    10    3   34 1
    11    4    8 am
    12    4    5 1
    13    5    6 1
    14    5   35 1
    15    5   36 1
    16    6    7 2
    17    6   18 1
    18    7    8 1
    19    7   10 1
    20    8    9 2
    21   10   15 ar
    22   10   11 ar
    23   11   12 ar
    24   11   37 1
    25   12   13 ar
    26   12   38 1
    27   13   14 ar
    28   13   16 1
    29   14   15 ar
    30   14   39 1
    31   15   40 1
    32   16   17 1
    33   16   41 1
    34   16   42 1
    35   17   43 1
    36   18   23 ar
    37   18   19 ar
    38   19   20 ar
    39   19   44 1
    40   20   21 ar
    41   20   45 1
    42   21   22 ar
    43   21   24 1
    44   22   23 ar
    45   22   46 1
    46   23   47 1
    47   24   25 2
    48   24   26 2
    49   24   27 1
    50   27   48 1
    51   27   49 1
    52   27   50 1
@<TRIPOS>MOLECULE
CHEMBL298476
   40    42     0     0     0
SMALL
USER_CHARGES

@<TRIPOS>ATOM
      1 C1         -1.2476    1.3539    0.5148 C.3       1 <0>        -0.1262
      2 C2         -0.9594   -0.1204    0.3955 C.ar      1 <0>        -0.0535
      3 C3         -0.8380   -0.8932    1.5367 C.ar      1 <0>        -0.1057
      4 C4         -0.5742   -2.2434    1.4345 C.ar      1 <0>        -0.0960
      5 C5         -0.4296   -2.8304    0.1765 C.ar      1 <0>        -0.0221
      6 C6         -0.5530   -2.0466   -0.9711 C.ar      1 <0>        -0.0568
      7 C7         -0.8228   -0.6971   -0.8557 C.ar      1 <0>        -0.0380
      8 Cl1        -0.9844    0.2792   -2.2821 Cl        1 <0>        -0.0512
      9 C8         -0.1463   -4.2771    0.0605 C.2       1 <0>         0.2773
     10 N1         -0.4234   -5.0352   -0.9773 N.2       1 <0>        -0.4245
     11 C9         -0.0259   -6.2883   -0.7284 C.2       1 <0>        -0.0814
     12 C10         0.5198   -6.3259    0.5044 C.2       1 <0>         0.0393
     13 N2          0.4538   -5.0540    1.0112 N.pl3     1 <0>        -0.4129
     14 C11         0.9112   -4.6316    2.2667 C.ar      1 <0>         0.1634
     15 C12         1.8310   -3.5956    2.3595 C.ar      1 <0>        -0.1225
     16 C13         2.2796   -3.1812    3.5982 C.ar      1 <0>        -0.0029
     17 C14         1.8137   -3.7969    4.7454 C.ar      1 <0>        -0.6691
     18 C15         0.8980   -4.8292    4.6562 C.ar      1 <0>         0.0031
     19 C16         0.4413   -5.2443    3.4206 C.ar      1 <0>        -0.1297
     20 S1          2.3884   -3.2653    6.3239 S.o2      1 <0>         2.7021
     21 O1          2.2154   -4.3628    7.2098 O.2       1 <0>        -0.9549
     22 O2          3.6516   -2.6505    6.1103 O.2       1 <0>        -0.9519
     23 N3          1.3631   -2.0726    6.8421 N.pl3     1 <0>        -1.2457
     24 C17        -0.1648   -7.4595   -1.6665 C.3       1 <0>         0.5561
     25 F1         -0.6727   -7.0171   -2.8927 F         1 <0>        -0.1618
     26 F2          1.0884   -8.0484   -1.8660 F         1 <0>        -0.1707
     27 F3         -1.0391   -8.4003   -1.1117 F         1 <0>        -0.1709
     28 H1         -2.3258    1.5138    0.5236 H         1 <0>         0.0821
     29 H2         -0.8163    1.7347    1.4406 H         1 <0>         0.0758
     30 H3         -0.8092    1.8796   -0.3334 H         1 <0>         0.0782
     31 H4         -0.9497   -0.4382    2.5098 H         1 <0>         0.1408
     32 H5         -0.4794   -2.8450    2.3264 H         1 <0>         0.1289
     33 H6         -0.4418   -2.4949   -1.9473 H         1 <0>         0.1485
     34 H7          0.9345   -7.1929    0.9971 H         1 <0>         0.1996
     35 H8          2.1955   -3.1146    1.4638 H         1 <0>         0.1459
     36 H9          2.9953   -2.3757    3.6710 H         1 <0>         0.1586
     37 H10         0.5364   -5.3086    5.5539 H         1 <0>         0.1585
     38 H11        -0.2775   -6.0474    3.3518 H         1 <0>         0.1477
     39 H12         1.2084   -1.9445    7.7911 H         1 <0>         0.4249
     40 H13         0.9172   -1.5021    6.1967 H         1 <0>         0.4178
@<TRIPOS>BOND
     1    1    2 1
     2    1   28 1
     3    1   29 1
     4    1   30 1
     5    2    7 ar
     6    2    3 ar
     7    3    4 ar
     8    3   31 1
     9    4    5 ar
    10    4   32 1
    11    5    6 ar
    12    5    9 1
    13    6    7 ar
    14    6   33 1
    15    7    8 1
    16    9   13 1
    17    9   10 2
    18   10   11 1
    19   11   12 2
    20   11   24 1
    21   12   13 1
    22   12   34 1
    23   13   14 1
    24   14   19 ar
    25   14   15 ar
    26   15   16 ar
    27   15   35 1
    28   16   17 ar
    29   16   36 1
    30   17   18 ar
    31   17   20 1
    32   18   19 ar
    33   18   37 1
    34   19   38 1
    35   20   21 2
    36   20   22 2
    37   20   23 1
    38   23   39 1
    39   23   40 1
    40   24   25 1
    41   24   26 1
    42   24   27 1
@<TRIPOS>MOLECULE
CHEMBL622
   41    43     0     0     0
SMALL
USER_CHARGES

@<TRIPOS>ATOM
      1 C1         -0.2527    1.6339   -0.0812 C.3       1 <0>        -0.1476
      2 C2         -0.1845    0.1054   -0.0887 C.3       1 <0>        -0.0818
      3 C3          0.6063   -0.3679    1.1036 C.ar      1 <0>        -0.0892
      4 C4          1.9531   -0.6303    0.9787 C.ar      1 <0>        -0.1104
      5 C5          2.6920   -1.0667    2.0695 C.ar      1 <0>        -0.1470
      6 C6          2.0960   -1.2437    3.2860 C.ar      1 <0>        -0.0781
      7 C7          0.7321   -0.9845    3.4374 C.ar      1 <0>        -0.0857
      8 C8         -0.0204   -0.5354    2.3332 C.ar      1 <0>         0.0974
      9 N1         -1.3170   -0.3546    2.7667 N.pl3     1 <0>        -0.5742
     10 H1         -2.0527   -0.0515    2.2119 H         1 <0>         0.4121
     11 C9         -1.4110   -0.6651    4.0907 C.2       1 <0>         0.0809
     12 C10        -0.2049   -1.0607    4.5495 C.2       1 <0>        -0.1847
     13 C11         0.0459   -1.4743    5.9771 C.3       1 <0>        -0.0727
     14 C12        -1.1544   -1.0117    6.8165 C.3       1 <0>         0.0516
     15 O1         -2.3681   -1.3816    6.1565 O.3       1 <0>        -0.3296
     16 C13        -2.6397   -0.6140    4.9696 C.3       1 <0>         0.2100
     17 C14        -3.8273   -1.2383    4.2343 C.3       1 <0>        -0.1179
     18 C15        -3.4642   -2.6570    3.7912 C.3       1 <0>        -0.1430
     19 C16        -2.9585    0.8388    5.3281 C.3       1 <0>        -0.2045
     20 C17        -4.1275    0.8768    6.2783 C.2       1 <0>         0.4986
     21 O2         -4.7023   -0.1554    6.5793 O.co2     1 <0>        -0.6709
     22 O3         -4.4985    1.9398    6.7462 O.co2     1 <0>        -0.7065
     23 H2          0.7565    2.0429   -0.1290 H         1 <0>         0.0573
     24 H3         -0.8247    1.9763   -0.9436 H         1 <0>         0.0563
     25 H4         -0.7386    1.9714    0.8342 H         1 <0>         0.0531
     26 H5         -1.1938   -0.3036   -0.0409 H         1 <0>         0.0627
     27 H6          0.3013   -0.2321   -1.0042 H         1 <0>         0.0726
     28 H7          2.4381   -0.4954    0.0232 H         1 <0>         0.1192
     29 H8          3.7468   -1.2684    1.9555 H         1 <0>         0.1172
     30 H9          2.6787   -1.5840    4.1292 H         1 <0>         0.1167
     31 H10         0.1419   -2.5585    6.0361 H         1 <0>         0.0726
     32 H11         0.9571   -1.0017    6.3439 H         1 <0>         0.0728
     33 H12        -1.1156   -1.4849    7.7977 H         1 <0>         0.0927
     34 H13        -1.1200    0.0714    6.9338 H         1 <0>         0.0526
     35 H14        -4.6888   -1.2752    4.9010 H         1 <0>         0.1206
     36 H15        -4.0705   -0.6354    3.3594 H         1 <0>         0.0524
     37 H16        -3.3044   -3.2823    4.6696 H         1 <0>         0.0616
     38 H17        -4.2771   -3.0703    3.1940 H         1 <0>         0.0455
     39 H18        -2.5526   -2.6291    3.1943 H         1 <0>         0.0416
     40 H19        -2.0897    1.2951    5.8025 H         1 <0>         0.0623
     41 H20        -3.2089    1.3901    4.4217 H         1 <0>         0.0632
@<TRIPOS>BOND
     1    1    2 1
     2    1   23 1
     3    1   24 1
     4    1   25 1
     5    2    3 1
     6    2   26 1
     7    2   27 1
     8    3    8 ar
     9    3    4 ar
    10    4    5 ar
    11    4   28 1
    12    5    6 ar
    13    5   29 1
    14    6    7 ar
    15    6   30 1
    16    7   12 1
    17    7    8 ar
    18    8    9 1
    19    9   10 1
    20    9   11 1
    21   11   16 1
    22   11   12 2
    23   12   13 1
    24   13   14 1
    25   13   31 1
    26   13   32 1
    27   14   15 1
    28   14   33 1
    29   14   34 1
    30   15   16 1
    31   16   17 1
    32   16   19 1
    33   17   18 1
    34   17   35 1
    35   17   36 1
    36   18   37 1
    37   18   38 1
    38   18   39 1
    39   19   20 1
    40   19   40 1
    41   19   41 1
    42   20   21 2
    43   20   22 1
@<TRIPOS>MOLECULE
CHEMBL622__1
   41    43     0     0     0
SMALL
USER_CHARGES

@<TRIPOS>ATOM
      1 C1         -0.2773   -0.1796   -0.5034 C.3       1 <0>        -0.1440
      2 C2         -0.3011   -1.6484   -0.0756 C.3       1 <0>        -0.0833
      3 C3          0.5196   -1.8202    1.1766 C.ar      1 <0>        -0.0898
      4 C4          1.8402   -2.2032    1.0893 C.ar      1 <0>        -0.1144
      5 C5          2.6061   -2.3647    2.2354 C.ar      1 <0>        -0.1507
      6 C6          2.0633   -2.1468    3.4700 C.ar      1 <0>        -0.0787
      7 C7          0.7267   -1.7581    3.5841 C.ar      1 <0>        -0.0825
      8 C8         -0.0527   -1.5872    2.4220 C.ar      1 <0>         0.1001
      9 N1         -1.3124   -1.1984    2.8265 N.pl3     1 <0>        -0.5743
     10 H1         -2.0559   -1.0128    2.2318 H         1 <0>         0.4082
     11 C9         -1.3574   -1.1136    4.1863 C.2       1 <0>         0.1062
     12 C10        -0.1553   -1.4487    4.7006 C.2       1 <0>        -0.1653
     13 C11         0.1425   -1.4580    6.1782 C.3       1 <0>        -0.0666
     14 C12        -0.9838   -0.6917    6.8879 C.3       1 <0>         0.0563
     15 O1         -2.2494   -1.1452    6.3999 O.3       1 <0>        -0.3269
     16 C13        -2.5346   -0.7277    5.0524 C.3       1 <0>         0.2040
     17 C14        -2.7473    0.7862    4.9903 C.3       1 <0>        -0.1423
     18 C15        -3.9336    1.1713    5.8765 C.3       1 <0>        -0.1465
     19 C16        -3.7932   -1.4476    4.5642 C.3       1 <0>        -0.1807
     20 C17        -3.5844   -2.9377    4.6491 C.2       1 <0>         0.4918
     21 O2         -2.5725   -3.3832    5.1628 O.co2     1 <0>        -0.6606
     22 O3         -4.4275   -3.6977    4.2040 O.co2     1 <0>        -0.7157
     23 H2          0.7509    0.1256   -0.6980 H         1 <0>         0.0562
     24 H3         -0.8709   -0.0553   -1.4091 H         1 <0>         0.0544
     25 H4         -0.6949    0.4374    0.2923 H         1 <0>         0.0506
     26 H5         -1.3292   -1.9535    0.1191 H         1 <0>         0.0639
     27 H6          0.1166   -2.2653   -0.8712 H         1 <0>         0.0720
     28 H7          2.2833   -2.3797    0.1203 H         1 <0>         0.1168
     29 H8          3.6399   -2.6656    2.1506 H         1 <0>         0.1147
     30 H9          2.6667   -2.2752    4.3564 H         1 <0>         0.1146
     31 H10         0.1763   -2.4850    6.5417 H         1 <0>         0.0788
     32 H11         1.0977   -0.9675    6.3655 H         1 <0>         0.0649
     33 H12        -0.9236   -0.8691    7.9616 H         1 <0>         0.0892
     34 H13        -0.8788    0.3749    6.6893 H         1 <0>         0.0434
     35 H14        -1.8499    1.2940    5.3436 H         1 <0>         0.0644
     36 H15        -2.9512    1.0826    3.9613 H         1 <0>         0.0652
     37 H16        -3.7780    0.7802    6.8820 H         1 <0>         0.0637
     38 H17        -4.0187    2.2571    5.9181 H         1 <0>         0.0490
     39 H18        -4.8493    0.7507    5.4608 H         1 <0>         0.0585
     40 H19        -4.6399   -1.1632    5.1891 H         1 <0>         0.0747
     41 H20        -3.9943   -1.1672    3.5303 H         1 <0>         0.0606
@<TRIPOS>BOND
     1    1    2 1
     2    1   23 1
     3    1   24 1
     4    1   25 1
     5    2    3 1
     6    2   26 1
     7    2   27 1
     8    3    8 ar
     9    3    4 ar
    10    4    5 ar
    11    4   28 1
    12    5    6 ar
    13    5   29 1
    14    6    7 ar
    15    6   30 1
    16    7   12 1
    17    7    8 ar
    18    8    9 1
    19    9   10 1
    20    9   11 1
    21   11   16 1
    22   11   12 2
    23   12   13 1
    24   13   14 1
    25   13   31 1
    26   13   32 1
    27   14   15 1
    28   14   33 1
    29   14   34 1
    30   15   16 1
    31   16   17 1
    32   16   19 1
    33   17   18 1
    34   17   35 1
    35   17   36 1
    36   18   37 1
    37   18   38 1
    38   18   39 1
    39   19   20 1
    40   19   40 1
    41   19   41 1
    42   20   21 2
    43   20   22 1
@<TRIPOS>MOLECULE
CHEMBL500387
   81    84     0     0     0
SMALL
USER_CHARGES

@<TRIPOS>ATOM
      1 C1         -1.3119    1.9741   -0.2479 C.3       1 <0>        -0.1697
      2 C2         -0.8036    0.5252   -0.0566 C.3       1 <0>        -0.1137
      3 H1         -0.0852    0.3474   -0.8488 H         1 <0>         0.1048
      4 C3         -2.0160   -0.3821   -0.1747 C.3       1 <0>         0.1329
      5 H2         -2.8339    0.0502    0.4329 H         1 <0>         0.1162
      6 C4         -1.7657   -1.8031    0.2933 C.3       1 <0>         0.0271
      7 C5         -0.5861   -2.0758    1.2144 C.3       1 <0>        -0.1137
      8 H3         -0.7897   -2.8450    1.9818 H         1 <0>         0.1141
      9 C6         -0.5651   -2.6046   -0.2025 C.3       1 <0>        -0.0642
     10 C7          0.4009   -2.0208   -1.2232 C.3       1 <0>        -0.1302
     11 C8         -0.7915   -4.1238   -0.3711 C.3       1 <0>        -0.1184
     12 C9          0.2573   -0.9432    1.7461 C.3       1 <0>        -0.0135
     13 H4          1.2749   -1.1315    1.3884 H         1 <0>         0.0956
     14 C10        -0.1192    0.4458    1.3061 C.3       1 <0>         0.1852
     15 C11         1.1324    1.3325    1.2425 C.3       1 <0>        -0.0959
     16 H5          0.8969    2.3649    0.9479 H         1 <0>         0.1128
     17 C12         2.0821    0.6892    0.2371 C.2       1 <0>        -0.1142
     18 C13         3.0575    0.0494    0.8753 C.2       1 <0>        -0.1885
     19 C14         2.9208    0.1734    2.3322 C.2       1 <0>         0.3947
     20 O1          3.4856   -0.4777    3.1844 O.2       1 <0>        -0.4136
     21 C15         1.9582    1.3192    2.5336 C.3       1 <0>        -0.1335
     22 H6          2.5473    2.2605    2.5881 H         1 <0>         0.1194
     23 C16         1.1112    1.2083    3.7784 C.3       1 <0>        -0.0627
     24 C17         0.6827   -0.1884    4.0954 C.2       1 <0>        -0.1024
     25 C18         0.3195   -1.0833    3.2422 C.2       1 <0>        -0.1241
     26 C19         0.6738   -0.5937    5.5540 C.3       1 <0>         0.1089
     27 O2          0.2410   -1.9507    5.6687 O.3       1 <0>        -0.5712
     28 C20         4.1658   -0.7085    0.1899 C.3       1 <0>        -0.1090
     29 O3         -1.0433    0.9934    2.2587 O.3       1 <0>        -0.5269
     30 O4         -2.9649   -2.5551    0.5724 O.3       1 <0>        -0.3218
     31 C21        -3.7368   -2.1191    1.5803 C.2       1 <0>         0.4553
     32 O5         -3.4193   -1.1325    2.2013 O.2       1 <0>        -0.4799
     33 C22        -4.9995   -2.8602    1.9372 C.3       1 <0>        -0.1457
     34 O6         -2.4740   -0.3938   -1.5370 O.3       1 <0>        -0.3228
     35 C23        -3.7975   -0.5008   -1.7340 C.2       1 <0>         0.4611
     36 O7         -4.5408   -0.6241   -0.7895 O.2       1 <0>        -0.4798
     37 C24        -4.3561   -0.4671   -3.1332 C.3       1 <0>         0.0323
     38 H7         -3.7368    0.1781   -3.7563 H         1 <0>         0.1695
     39 C25        -4.3631   -1.8827   -3.7138 C.3       1 <0>        -0.1075
     40 C26        -2.9319   -2.4214   -3.7617 C.3       1 <0>        -0.1577
     41 C27        -5.2209   -2.7917   -2.8312 C.3       1 <0>        -0.1801
     42 N1         -5.7287    0.0553   -3.1000 N.4       1 <0>        -0.3784
     43 C28        -5.7131    1.4426   -2.6174 C.3       1 <0>        -0.0560
     44 C29        -6.3013    0.0136   -4.4522 C.3       1 <0>        -0.0525
     45 H8         -0.4725    2.6659   -0.1772 H         1 <0>         0.0770
     46 H9         -1.7791    2.0688   -1.2281 H         1 <0>         0.0634
     47 H10        -2.0420    2.2083    0.5268 H         1 <0>         0.0667
     48 H11         0.8515   -1.1140   -0.8198 H         1 <0>         0.0671
     49 H12         1.1824   -2.7487   -1.4415 H         1 <0>         0.0781
     50 H13        -0.1391   -1.7817   -2.1393 H         1 <0>         0.0700
     51 H14        -1.5897   -4.2942   -1.0936 H         1 <0>         0.0655
     52 H15         0.1268   -4.5906   -0.7273 H         1 <0>         0.0696
     53 H16        -1.0713   -4.5582    0.5887 H         1 <0>         0.0628
     54 H17         1.9784    0.7504   -0.8358 H         1 <0>         0.1478
     55 H18         1.7041    1.5770    4.6339 H         1 <0>         0.0675
     56 H19         0.2426    1.8631    3.7111 H         1 <0>         0.0980
     57 H20         0.0218   -2.0464    3.6489 H         1 <0>         0.1198
     58 H21         1.6791   -0.4970    5.9641 H         1 <0>         0.0569
     59 H22        -0.0077    0.0530    6.1067 H         1 <0>         0.0550
     60 H23         0.2110   -2.2785    6.5780 H         1 <0>         0.3823
     61 H24         5.0050   -0.0376    0.0060 H         1 <0>         0.0783
     62 H25         4.4911   -1.5313    0.8265 H         1 <0>         0.0749
     63 H26         3.8027   -1.1045   -0.7585 H         1 <0>         0.0712
     64 H27        -1.2880    1.9127    2.0856 H         1 <0>         0.3667
     65 H28        -5.1187   -3.7161    1.2728 H         1 <0>         0.0854
     66 H29        -4.9381   -3.2069    2.9688 H         1 <0>         0.1059
     67 H30        -5.8551   -2.1938    1.8282 H         1 <0>         0.1023
     68 H31        -4.7767   -1.8598   -4.7220 H         1 <0>         0.1157
     69 H32        -2.5556   -2.5437   -2.7460 H         1 <0>         0.0742
     70 H33        -2.9232   -3.3850   -4.2709 H         1 <0>         0.0850
     71 H34        -2.2973   -1.7191   -4.3021 H         1 <0>         0.0733
     72 H35        -6.2572   -2.4552   -2.8620 H         1 <0>         0.0562
     73 H36        -5.1605   -3.8163   -3.1980 H         1 <0>         0.0928
     74 H37        -4.8561   -2.7510   -1.8049 H         1 <0>         0.0790
     75 H38        -5.1719    2.0682   -3.3272 H         1 <0>         0.1280
     76 H39        -6.7364    1.8051   -2.5202 H         1 <0>         0.1355
     77 H40        -5.2193    1.4840   -1.6465 H         1 <0>         0.1195
     78 H41        -6.3130   -1.0158   -4.8103 H         1 <0>         0.1301
     79 H42        -7.3198    0.4013   -4.4275 H         1 <0>         0.1344
     80 H43        -5.6962    0.6245   -5.1220 H         1 <0>         0.1289
     81 H44        -6.2889   -0.5102   -2.4800 H         1 <0>         0.4331
@<TRIPOS>BOND
     1    1    2 1
     2    1   45 1
     3    1   46 1
     4    1   47 1
     5    2    3 1
     6    2   14 1
     7    2    4 1
     8    4    5 1
     9    4    6 1
    10    4   34 1
    11    6    9 1
    12    6    7 1
    13    6   30 1
    14    7    8 1
    15    7    9 1
    16    7   12 1
    17    9   10 1
    18    9   11 1
    19   10   48 1
    20   10   49 1
    21   10   50 1
    22   11   51 1
    23   11   52 1
    24   11   53 1
    25   12   13 1
    26   12   25 1
    27   12   14 1
    28   14   15 1
    29   14   29 1
    30   15   16 1
    31   15   21 1
    32   15   17 1
    33   17   18 2
    34   17   54 1
    35   18   19 1
    36   18   28 1
    37   19   20 2
    38   19   21 1
    39   21   22 1
    40   21   23 1
    41   23   24 1
    42   23   55 1
    43   23   56 1
    44   24   25 2
    45   24   26 1
    46   25   57 1
    47   26   27 1
    48   26   58 1
    49   26   59 1
    50   27   60 1
    51   28   61 1
    52   28   62 1
    53   28   63 1
    54   29   64 1
    55   30   31 1
    56   31   32 2
    57   31   33 1
    58   33   65 1
    59   33   66 1
    60   33   67 1
    61   34   35 1
    62   35   36 2
    63   35   37 1
    64   37   38 1
    65   37   39 1
    66   37   42 1
    67   39   40 1
    68   39   41 1
    69   39   68 1
    70   40   69 1
    71   40   70 1
    72   40   71 1
    73   41   72 1
    74   41   73 1
    75   41   74 1
    76   42   43 1
    77   42   44 1
    78   42   81 1
    79   43   75 1
    80   43   76 1
    81   43   77 1
    82   44   78 1
    83   44   79 1
    84   44   80 1
@<TRIPOS>MOLECULE
CHEMBL500387__1
   80    83     0     0     0
SMALL
USER_CHARGES

@<TRIPOS>ATOM
      1 C1         -1.6709    4.2604   -2.2675 C.3       1 <0>        -0.1651
      2 C2         -0.6537    3.2094   -1.7624 C.3       1 <0>        -0.1236
      3 H1         -0.0911    2.8879   -2.6316 H         1 <0>         0.0968
      4 C3         -1.4621    2.0749   -1.1573 C.3       1 <0>         0.1208
      5 H2         -2.2426    2.5132   -0.5063 H         1 <0>         0.1138
      6 C4         -0.6357    1.1047   -0.3345 C.3       1 <0>         0.0571
      7 C5          0.7212    1.5541    0.1864 C.3       1 <0>        -0.1196
      8 H3          0.9605    1.1685    1.1943 H         1 <0>         0.1108
      9 C6          0.6478    0.4877   -0.8836 C.3       1 <0>        -0.0661
     10 C7          1.1207    0.7890   -2.2984 C.3       1 <0>        -0.1273
     11 C8          0.9476   -0.9592   -0.4318 C.3       1 <0>        -0.1166
     12 C9          1.1943    2.9730   -0.0130 C.3       1 <0>        -0.0109
     13 H4          2.1199    2.9033   -0.5937 H         1 <0>         0.0923
     14 C10         0.2696    3.8966   -0.7589 C.3       1 <0>         0.1844
     15 C11         1.0851    4.9443   -1.5296 C.3       1 <0>        -0.0987
     16 H5          0.4447    5.6557   -2.0699 H         1 <0>         0.1123
     17 C12         1.9823    4.1830   -2.5002 C.2       1 <0>        -0.1009
     18 C13         3.2270    4.1416   -2.0345 C.2       1 <0>        -0.2003
     19 C14         3.3466    4.8457   -0.7514 C.2       1 <0>         0.3990
     20 O1          4.2626    4.7868    0.0401 O.2       1 <0>        -0.4214
     21 C15         2.0998    5.6925   -0.6580 C.3       1 <0>        -0.1329
     22 H6          2.3142    6.6769   -1.1281 H         1 <0>         0.1161
     23 C16         1.6120    5.9276    0.7512 C.3       1 <0>        -0.0593
     24 C17         1.7797    4.7477    1.6536 C.2       1 <0>        -0.1108
     25 C18         1.5971    3.5133    1.3315 C.2       1 <0>        -0.1146
     26 C19         2.2045    5.0243    3.0802 C.3       1 <0>         0.1119
     27 O2          2.3142    3.7902    3.7923 O.3       1 <0>        -0.5694
     28 C20         4.3731    3.4579   -2.7357 C.3       1 <0>        -0.1053
     29 O3         -0.5807    4.5582    0.1902 O.3       1 <0>        -0.5282
     30 O4         -1.4086    0.2799    0.5620 O.3       1 <0>        -0.3221
     31 C21        -2.0611    0.9046    1.5549 C.2       1 <0>         0.4426
     32 O5         -1.9106    2.0915    1.7237 O.2       1 <0>        -0.4759
     33 C22        -2.9813    0.1256    2.4589 C.3       1 <0>        -0.1471
     34 O6         -2.1460    1.3640   -2.2025 O.3       1 <0>        -0.3417
     35 C23        -3.4464    1.6452   -2.3808 C.2       1 <0>         0.4698
     36 O7         -4.0174    2.3780   -1.6083 O.2       1 <0>        -0.4841
     37 C24        -4.1940    1.0469   -3.5445 C.3       1 <0>         0.0965
     38 H7         -3.5719    1.0928   -4.4383 H         1 <0>         0.1138
     39 C25        -4.5357   -0.4120   -3.2354 C.3       1 <0>        -0.1269
     40 C26        -5.0119   -1.1061   -4.5130 C.3       1 <0>        -0.1546
     41 C27        -3.2919   -1.1250   -2.7010 C.3       1 <0>        -0.1482
     42 N1         -5.4331    1.8027   -3.7711 N.3       1 <0>        -0.5265
     43 C28        -5.9400    1.5866   -5.1328 C.3       1 <0>         0.0206
     44 C29        -6.4509    1.4575   -2.7696 C.3       1 <0>         0.0160
     45 H8         -1.1360    5.0964   -2.7182 H         1 <0>         0.0672
     46 H9         -2.3254    3.8048   -3.0105 H         1 <0>         0.0620
     47 H10        -2.2677    4.6204   -1.4294 H         1 <0>         0.0696
     48 H11         1.2898    1.8605   -2.4045 H         1 <0>         0.0642
     49 H12         2.0500    0.2535   -2.4926 H         1 <0>         0.0722
     50 H13         0.3610    0.4687   -3.0114 H         1 <0>         0.0740
     51 H14         0.1360   -1.6143   -0.7484 H         1 <0>         0.0691
     52 H15         1.8818   -1.2944   -0.8823 H         1 <0>         0.0650
     53 H16         1.0364   -0.9897    0.6542 H         1 <0>         0.0593
     54 H17         1.6534    3.7471   -3.4316 H         1 <0>         0.1478
     55 H18         2.1919    6.7623    1.1831 H         1 <0>         0.0633
     56 H19         0.5725    6.2549    0.7478 H         1 <0>         0.0976
     57 H20         1.7480    2.7804    2.1200 H         1 <0>         0.1183
     58 H21         3.1696    5.5308    3.0802 H         1 <0>         0.0538
     59 H22         1.4614    5.6582    3.5642 H         1 <0>         0.0532
     60 H23         2.5833    3.8914    4.7156 H         1 <0>         0.3791
     61 H24         4.8648    4.1656   -3.4031 H         1 <0>         0.0745
     62 H25         5.0888    3.0983   -1.9964 H         1 <0>         0.0726
     63 H26         3.9944    2.6156   -3.3145 H         1 <0>         0.0708
     64 H27        -1.1653    5.2217   -0.2011 H         1 <0>         0.3674
     65 H28        -2.4182   -0.2521    3.3123 H         1 <0>         0.1030
     66 H29        -3.7815    0.7766    2.8111 H         1 <0>         0.1023
     67 H30        -3.4099   -0.7111    1.9073 H         1 <0>         0.0898
     68 H31        -5.3260   -0.4491   -2.4856 H         1 <0>         0.0850
     69 H32        -4.2729   -0.9629   -5.3013 H         1 <0>         0.0604
     70 H33        -5.1379   -2.1718   -4.3223 H         1 <0>         0.0634
     71 H34        -5.9643   -0.6779   -4.8257 H         1 <0>         0.0627
     72 H35        -2.4809   -1.0310   -3.4231 H         1 <0>         0.0633
     73 H36        -2.9914   -0.6722   -1.7561 H         1 <0>         0.0627
     74 H37        -3.5174   -2.1796   -2.5430 H         1 <0>         0.0592
     75 H38        -6.6895    0.7952   -5.1202 H         1 <0>         0.0456
     76 H39        -6.3903    2.5076   -5.5033 H         1 <0>         0.0729
     77 H40        -5.1165    1.2968   -5.7853 H         1 <0>         0.0654
     78 H41        -6.0297    1.5685   -1.7704 H         1 <0>         0.0811
     79 H42        -7.3079    2.1220   -2.8785 H         1 <0>         0.0721
     80 H43        -6.7701    0.4257   -2.9167 H         1 <0>         0.0336
@<TRIPOS>BOND
     1    1    2 1
     2    1   45 1
     3    1   46 1
     4    1   47 1
     5    2    3 1
     6    2   14 1
     7    2    4 1
     8    4    5 1
     9    4    6 1
    10    4   34 1
    11    6    9 1
    12    6    7 1
    13    6   30 1
    14    7    8 1
    15    7    9 1
    16    7   12 1
    17    9   10 1
    18    9   11 1
    19   10   48 1
    20   10   49 1
    21   10   50 1
    22   11   51 1
    23   11   52 1
    24   11   53 1
    25   12   13 1
    26   12   25 1
    27   12   14 1
    28   14   15 1
    29   14   29 1
    30   15   16 1
    31   15   21 1
    32   15   17 1
    33   17   18 2
    34   17   54 1
    35   18   19 1
    36   18   28 1
    37   19   20 2
    38   19   21 1
    39   21   22 1
    40   21   23 1
    41   23   24 1
    42   23   55 1
    43   23   56 1
    44   24   25 2
    45   24   26 1
    46   25   57 1
    47   26   27 1
    48   26   58 1
    49   26   59 1
    50   27   60 1
    51   28   61 1
    52   28   62 1
    53   28   63 1
    54   29   64 1
    55   30   31 1
    56   31   32 2
    57   31   33 1
    58   33   65 1
    59   33   66 1
    60   33   67 1
    61   34   35 1
    62   35   36 2
    63   35   37 1
    64   37   38 1
    65   37   39 1
    66   37   42 1
    67   39   40 1
    68   39   41 1
    69   39   68 1
    70   40   69 1
    71   40   70 1
    72   40   71 1
    73   41   72 1
    74   41   73 1
    75   41   74 1
    76   42   43 1
    77   42   44 1
    78   43   75 1
    79   43   76 1
    80   43   77 1
    81   44   78 1
    82   44   79 1
    83   44   80 1
@<TRIPOS>MOLECULE
CHEMBL6
   40    42     0     0     0
SMALL
USER_CHARGES

@<TRIPOS>ATOM
      1 C1         -0.0182    1.5027    0.0102 C.3       1 <0>        -0.0883
      2 C2          0.0021   -0.0042    0.0020 C.2       1 <0>         0.0711
      3 C3          0.0074   -0.7679   -1.0995 C.2       1 <0>        -0.0782
      4 C4          0.0293   -2.1662   -0.6567 C.ar      1 <0>        -0.0368
      5 C5          0.0428   -3.3917   -1.3243 C.ar      1 <0>        -0.0938
      6 C6          0.0625   -4.5656   -0.5961 C.ar      1 <0>         0.0956
      7 C7          0.0688   -4.5275    0.7953 C.ar      1 <0>        -0.1804
      8 C8          0.0551   -3.3226    1.4635 C.ar      1 <0>        -0.0946
      9 C9          0.0357   -2.1316    0.7482 C.ar      1 <0>         0.0803
     10 N1          0.0240   -0.7990    1.1223 N.am      1 <0>        -0.5123
     11 C10         0.0297   -0.3494    2.3928 C.2       1 <0>         0.6115
     12 O1         -1.0174   -0.0751    2.9450 O.2       1 <0>        -0.4412
     13 C11         1.3084   -0.1902    3.1139 C.ar      1 <0>        -0.1622
     14 C12         2.5190   -0.3985    2.4491 C.ar      1 <0>        -0.0360
     15 C13         3.7097   -0.2483    3.1279 C.ar      1 <0>        -0.1193
     16 C14         3.7070    0.1084    4.4664 C.ar      1 <0>         0.0005
     17 C15         2.5096    0.3160    5.1314 C.ar      1 <0>        -0.1284
     18 C16         1.3125    0.1750    4.4621 C.ar      1 <0>        -0.0426
     19 Cl1         5.2103    0.2955    5.3141 Cl        1 <0>        -0.0622
     20 O2          0.0753   -5.7626   -1.2410 O.3       1 <0>        -0.3182
     21 C17         0.0954   -6.9375   -0.4278 C.3       1 <0>         0.0304
     22 C18        -0.0069   -0.2812   -2.5257 C.3       1 <0>        -0.1253
     23 C19         1.4090   -0.0991   -3.0085 C.2       1 <0>         0.4982
     24 O3          2.3431   -0.3421   -2.2636 O.co2     1 <0>        -0.6866
     25 O4          1.6204    0.2911   -4.1441 O.co2     1 <0>        -0.7049
     26 H1          1.0044    1.8799    0.0025 H         1 <0>         0.0804
     27 H2         -0.5453    1.8638   -0.8729 H         1 <0>         0.0881
     28 H3         -0.5284    1.8543    0.9070 H         1 <0>         0.0568
     29 H4          0.0376   -3.4222   -2.4038 H         1 <0>         0.1332
     30 H5          0.0842   -5.4504    1.3560 H         1 <0>         0.1288
     31 H6          0.0595   -3.3039    2.5434 H         1 <0>         0.1161
     32 H7          2.5224   -0.6770    1.4056 H         1 <0>         0.1519
     33 H8          4.6464   -0.4095    2.6151 H         1 <0>         0.1453
     34 H9          2.5140    0.5936    6.1751 H         1 <0>         0.1420
     35 H10         0.3798    0.3418    4.9804 H         1 <0>         0.1449
     36 H11         0.9887   -6.9318    0.1968 H         1 <0>         0.0516
     37 H12        -0.7911   -6.9558    0.2062 H         1 <0>         0.0506
     38 H13         0.1040   -7.8210   -1.0660 H         1 <0>         0.0947
     39 H14        -0.5139   -1.0132   -3.1543 H         1 <0>         0.0698
     40 H15        -0.5343    0.6712   -2.5793 H         1 <0>         0.0692
@<TRIPOS>BOND
     1    1    2 1
     2    1   26 1
     3    1   27 1
     4    1   28 1
     5    2   10 1
     6    2    3 2
     7    3    4 1
     8    3   22 1
     9    4    9 ar
    10    4    5 ar
    11    5    6 ar
    12    5   29 1
    13    6    7 ar
    14    6   20 1
    15    7    8 ar
    16    7   30 1
    17    8    9 ar
    18    8   31 1
    19    9   10 1
    20   10   11 am
    21   11   12 2
    22   11   13 1
    23   13   18 ar
    24   13   14 ar
    25   14   15 ar
    26   14   32 1
    27   15   16 ar
    28   15   33 1
    29   16   17 ar
    30   16   19 1
    31   17   18 ar
    32   17   34 1
    33   18   35 1
    34   20   21 1
    35   21   36 1
    36   21   37 1
    37   21   38 1
    38   22   23 1
    39   22   39 1
    40   22   40 1
    41   23   24 2
    42   23   25 1
@<TRIPOS>MOLECULE
CHEMBL1079073
   39    40     0     0     0
SMALL
USER_CHARGES

@<TRIPOS>ATOM
      1 C1         -0.0168    1.3877    0.0097 C.ar      1 <0>        -0.2794
      2 C2          1.1800    2.0765    0.0019 C.ar      1 <0>         0.0863
      3 N1          2.3325    1.4350   -0.0129 N.ar      1 <0>        -0.5161
      4 C3          2.3979    0.1162   -0.0207 C.ar      1 <0>         0.0255
      5 C4          1.2446   -0.6497   -0.0138 C.ar      1 <0>         0.1273
      6 C5          0.0021   -0.0041    0.0020 C.ar      1 <0>         0.2510
      7 N2         -1.1852   -0.7363    0.0099 N.2       1 <0>        -1.0588
      8 S1         -2.6427    0.0497    0.0286 S.o2      1 <0>         2.5116
      9 O1         -2.6634    0.7458    1.2672 O.2       1 <0>        -0.9565
     10 O2         -2.6879    0.7591   -1.2019 O.2       1 <0>        -0.9563
     11 C6         -3.8851   -1.2720    0.0338 C.3       1 <0>        -0.0082
     12 F1         -3.7127   -2.0696    1.1702 F         1 <0>        -0.1653
     13 F2         -5.1655   -0.7083    0.0495 F         1 <0>        -0.1842
     14 F3         -3.7354   -2.0573   -1.1142 F         1 <0>        -0.1652
     15 N3          1.3194   -2.0483   -0.0225 N.pl3     1 <0>        -0.7354
     16 C7          2.6254   -2.7119   -0.0390 C.3       1 <0>         0.1613
     17 C8          3.1473   -2.7513   -1.4899 C.3       1 <0>        -0.1339
     18 C9          4.6392   -2.9443   -1.4560 C.3       1 <0>        -0.1169
     19 C10         5.0446   -4.4260   -1.5730 C.3       1 <0>        -0.1152
     20 C11         4.1476   -5.3587   -0.7368 C.3       1 <0>        -0.1195
     21 C12         3.8319   -4.7898    0.6201 C.3       1 <0>        -0.1102
     22 C13         2.4859   -4.0412    0.5367 C.3       1 <0>        -0.1272
     23 H1         -0.9553    1.9219    0.0260 H         1 <0>         0.1076
     24 H2          1.1723    3.1565    0.0078 H         1 <0>         0.1338
     25 H3          3.3620   -0.3705   -0.0329 H         1 <0>         0.1361
     26 H4          0.5065   -2.5775   -0.0176 H         1 <0>         0.4053
     27 H5          3.3218   -2.1349    0.5695 H         1 <0>         0.0667
     28 H6          2.6828   -3.5804   -2.0237 H         1 <0>         0.0631
     29 H7          2.9109   -1.8119   -1.9897 H         1 <0>         0.0702
     30 H8          5.0854   -2.3903   -2.2819 H         1 <0>         0.0574
     31 H9          5.0251   -2.5461   -0.5176 H         1 <0>         0.0606
     32 H10         4.9843   -4.7254   -2.6193 H         1 <0>         0.0551
     33 H11         6.0757   -4.5360   -1.2371 H         1 <0>         0.0548
     34 H12         3.2145   -5.5261   -1.2748 H         1 <0>         0.0615
     35 H13         4.6551   -6.3148   -0.6090 H         1 <0>         0.0540
     36 H14         3.7569   -5.5981    1.3475 H         1 <0>         0.0621
     37 H15         4.6185   -4.0968    0.9185 H         1 <0>         0.0669
     38 H16         2.0703   -3.9495    1.5402 H         1 <0>         0.0663
     39 H17         1.7968   -4.6213   -0.0771 H         1 <0>         0.0643
@<TRIPOS>BOND
     1    1    6 ar
     2    1    2 ar
     3    1   23 1
     4    2    3 ar
     5    2   24 1
     6    3    4 ar
     7    4    5 ar
     8    4   25 1
     9    5    6 ar
    10    5   15 1
    11    6    7 1
    12    7    8 1
    13    8    9 2
    14    8   10 2
    15    8   11 1
    16   11   12 1
    17   11   13 1
    18   11   14 1
    19   15   16 1
    20   15   26 1
    21   16   22 1
    22   16   17 1
    23   16   27 1
    24   17   18 1
    25   17   28 1
    26   17   29 1
    27   18   19 1
    28   18   30 1
    29   18   31 1
    30   19   20 1
    31   19   32 1
    32   19   33 1
    33   20   21 1
    34   20   34 1
    35   20   35 1
    36   21   22 1
    37   21   36 1
    38   21   37 1
    39   22   38 1
    40   22   39 1
@<TRIPOS>MOLECULE
CHEMBL1079073__1
   40    41     0     0     0
SMALL
USER_CHARGES

@<TRIPOS>ATOM
      1 C1         -0.0172    1.4181    0.0098 C.2       1 <0>        -0.3160
      2 C2          1.1487    2.0917    0.0023 C.2       1 <0>         0.1877
      3 N1          2.3417    1.4432   -0.0130 N.pl3     1 <0>        -0.5514
      4 C3          2.4277    0.0805   -0.0216 C.2       1 <0>        -0.0057
      5 C4          1.3090   -0.6786   -0.0146 C.2       1 <0>         0.1663
      6 C5          0.0021   -0.0041    0.0020 C.2       1 <0>         0.3818
      7 N2         -1.1230   -0.7000    0.0095 N.2       1 <0>        -1.0015
      8 S1         -2.5815    0.0840    0.0281 S.o2      1 <0>         2.5486
      9 O1         -2.6031    0.7801    1.2668 O.2       1 <0>        -0.9166
     10 O2         -2.6277    0.7933   -1.2023 O.2       1 <0>        -0.9164
     11 C6         -3.8221   -1.2394    0.0334 C.3       1 <0>        -0.0029
     12 F1         -3.6487   -2.0367    1.1697 F         1 <0>        -0.1569
     13 F2         -5.1033   -0.6775    0.0491 F         1 <0>        -0.1663
     14 F3         -3.6713   -2.0245   -1.1147 F         1 <0>        -0.1570
     15 N3          1.3929   -2.0794   -0.0239 N.pl3     1 <0>        -0.7207
     16 C7          2.7031   -2.7347   -0.0413 C.3       1 <0>         0.1566
     17 C8          3.2244   -2.7703   -1.4925 C.3       1 <0>        -0.1366
     18 C9          4.7175   -2.9538   -1.4595 C.3       1 <0>        -0.1182
     19 C10         5.1323   -4.4329   -1.5772 C.3       1 <0>        -0.1187
     20 C11         4.2417   -5.3715   -0.7409 C.3       1 <0>        -0.1233
     21 C12         3.9231   -4.8052    0.6163 C.3       1 <0>        -0.1093
     22 C13         2.5723   -4.0651    0.5340 C.3       1 <0>        -0.1341
     23 H1         -0.9561    1.9515    0.0261 H         1 <0>         0.1500
     24 H2          1.1348    3.1716    0.0083 H         1 <0>         0.1802
     25 H3          3.3974   -0.3948   -0.0345 H         1 <0>         0.1749
     26 H4          0.5834   -2.6138   -0.0187 H         1 <0>         0.4165
     27 H5          3.3960   -2.1535    0.5671 H         1 <0>         0.0742
     28 H6          2.7649   -3.6021   -2.0264 H         1 <0>         0.0732
     29 H7          2.9817   -1.8323   -1.9919 H         1 <0>         0.0693
     30 H8          5.1597   -2.3967   -2.2855 H         1 <0>         0.0621
     31 H9          5.1014   -2.5535   -0.5211 H         1 <0>         0.0604
     32 H10         5.0733   -4.7323   -2.6237 H         1 <0>         0.0596
     33 H11         6.1643   -4.5363   -1.2420 H         1 <0>         0.0598
     34 H12         3.3094   -5.5447   -1.2784 H         1 <0>         0.0624
     35 H13         4.7553   -6.3244   -0.6137 H         1 <0>         0.0605
     36 H14         3.8537   -5.6142    1.3435 H         1 <0>         0.0688
     37 H15         4.7054   -4.1072    0.9146 H         1 <0>         0.0681
     38 H16         2.1567   -3.9764    1.5377 H         1 <0>         0.0709
     39 H17         1.8866   -4.6493   -0.0797 H         1 <0>         0.0706
     40 H18         3.1594    1.9650   -0.0183 H         1 <0>         0.4287
@<TRIPOS>BOND
     1    1    6 1
     2    1    2 2
     3    1   23 1
     4    2    3 1
     5    2   24 1
     6    3    4 1
     7    3   40 1
     8    4    5 2
     9    4   25 1
    10    5    6 1
    11    5   15 1
    12    6    7 2
    13    7    8 1
    14    8    9 2
    15    8   10 2
    16    8   11 1
    17   11   12 1
    18   11   13 1
    19   11   14 1
    20   15   16 1
    21   15   26 1
    22   16   22 1
    23   16   17 1
    24   16   27 1
    25   17   18 1
    26   17   28 1
    27   17   29 1
    28   18   19 1
    29   18   30 1
    30   18   31 1
    31   19   20 1
    32   19   32 1
    33   19   33 1
    34   20   21 1
    35   20   34 1
    36   20   35 1
    37   21   22 1
    38   21   36 1
    39   21   37 1
    40   22   38 1
    41   22   39 1
@<TRIPOS>MOLECULE
CHEMBL1079073__2
   39    40     0     0     0
SMALL
USER_CHARGES

@<TRIPOS>ATOM
      1 C1         -0.0172    1.4181    0.0098 C.2       1 <0>        -0.3351
      2 C2          1.1487    2.0917    0.0023 C.2       1 <0>         0.1147
      3 N1          2.3417    1.4432   -0.0130 N.2       1 <0>        -0.5539
      4 C3          2.4277    0.0805   -0.0212 C.2       1 <0>         0.0248
      5 C4          1.3090   -0.6786   -0.0141 C.2       1 <0>         0.1000
      6 C5          0.0021   -0.0041    0.0020 C.2       1 <0>         0.3079
      7 N2         -1.1230   -0.7000    0.0095 N.2       1 <0>        -1.0433
      8 S1         -2.5815    0.0840    0.0281 S.o2      1 <0>         2.5257
      9 O1         -2.6031    0.7801    1.2668 O.2       1 <0>        -0.9447
     10 O2         -2.6277    0.7933   -1.2023 O.2       1 <0>        -0.9445
     11 C6         -3.8221   -1.2394    0.0334 C.3       1 <0>        -0.0095
     12 F1         -3.6487   -2.0367    1.1697 F         1 <0>        -0.1637
     13 F2         -5.1033   -0.6775    0.0491 F         1 <0>        -0.1814
     14 F3         -3.6713   -2.0245   -1.1147 F         1 <0>        -0.1637
     15 N3          1.3929   -2.0794   -0.0229 N.pl3     1 <0>        -0.7426
     16 C7          2.7031   -2.7347   -0.0399 C.3       1 <0>         0.1647
     17 C8          3.2247   -2.7707   -1.4910 C.3       1 <0>        -0.1341
     18 C9          4.7178   -2.9542   -1.4576 C.3       1 <0>        -0.1170
     19 C10         5.1326   -4.4334   -1.5748 C.3       1 <0>        -0.1151
     20 C11         4.2418   -5.3717   -0.7383 C.3       1 <0>        -0.1192
     21 C12         3.9230   -4.8050    0.6186 C.3       1 <0>        -0.1104
     22 C13         2.5722   -4.0650    0.5358 C.3       1 <0>        -0.1265
     23 H1         -0.9561    1.9515    0.0261 H         1 <0>         0.1054
     24 H2          1.1348    3.1716    0.0083 H         1 <0>         0.1289
     25 H3          3.3974   -0.3948   -0.0337 H         1 <0>         0.1334
     26 H4          0.5834   -2.6138   -0.0178 H         1 <0>         0.4006
     27 H5          3.3959   -2.1534    0.5684 H         1 <0>         0.0658
     28 H6          2.7653   -3.6027   -2.0247 H         1 <0>         0.0621
     29 H7          2.9821   -1.8329   -1.9907 H         1 <0>         0.0704
     30 H8          5.1601   -2.3974   -2.2837 H         1 <0>         0.0571
     31 H9          5.1015   -2.5536   -0.5193 H         1 <0>         0.0605
     32 H10         5.0738   -4.7331   -2.6211 H         1 <0>         0.0549
     33 H11         6.1645   -4.5367   -1.2393 H         1 <0>         0.0546
     34 H12         3.3096   -5.5451   -1.2760 H         1 <0>         0.0612
     35 H13         4.7555   -6.3246   -0.6107 H         1 <0>         0.0538
     36 H14         3.8534   -5.6137    1.3461 H         1 <0>         0.0618
     37 H15         4.7052   -4.1069    0.9168 H         1 <0>         0.0669
     38 H16         2.1564   -3.9759    1.5394 H         1 <0>         0.0657
     39 H17         1.8866   -4.6493   -0.0778 H         1 <0>         0.0635
@<TRIPOS>BOND
     1    1    6 1
     2    1    2 2
     3    1   23 1
     4    2    3 1
     5    2   24 1
     6    3    4 1
     7    4    5 2
     8    4   25 1
     9    5    6 1
    10    5   15 1
    11    6    7 2
    12    7    8 1
    13    8    9 2
    14    8   10 2
    15    8   11 1
    16   11   12 1
    17   11   13 1
    18   11   14 1
    19   15   16 1
    20   15   26 1
    21   16   22 1
    22   16   17 1
    23   16   27 1
    24   17   18 1
    25   17   28 1
    26   17   29 1
    27   18   19 1
    28   18   30 1
    29   18   31 1
    30   19   20 1
    31   19   32 1
    32   19   33 1
    33   20   21 1
    34   20   34 1
    35   20   35 1
    36   21   22 1
    37   21   36 1
    38   21   37 1
    39   22   38 1
    40   22   39 1
@<TRIPOS>MOLECULE
CHEMBL292239
   50    53     0     0     0
SMALL
USER_CHARGES

@<TRIPOS>ATOM
      1 C1         -0.0187    1.5258    0.0104 C.3       1 <0>        -0.1360
      2 C2          0.0021   -0.0041    0.0020 C.3       1 <0>        -0.0759
      3 C3          0.8758   -0.5379   -1.1547 C.3       1 <0>        -0.0449
      4 C4          2.2462   -0.7188   -0.5334 C.2       1 <0>         0.0146
      5 C5          3.5537   -0.8831   -0.8786 C.2       1 <0>        -0.1074
      6 C6          4.3026   -0.9850    0.3810 C.2       1 <0>        -0.1631
      7 C7          3.3880   -0.8764    1.3774 C.2       1 <0>         0.1600
      8 N1          2.1467   -0.7186    0.8229 N.pl3     1 <0>        -0.4564
      9 C8          0.7418   -0.5522    1.2399 C.3       1 <0>         0.1145
     10 C9          3.6897   -0.9224    2.8532 C.3       1 <0>        -0.1393
     11 C10         3.6147   -2.3476    3.3371 C.2       1 <0>         0.4978
     12 O1          3.3416   -3.2430    2.5560 O.co2     1 <0>        -0.6805
     13 O2          3.8271   -2.6052    4.5097 O.co2     1 <0>        -0.6977
     14 C11         5.7661   -1.1702    0.5332 C.ar      1 <0>         0.0910
     15 C12         6.3730   -2.3427    0.0865 C.ar      1 <0>        -0.0973
     16 C13         7.7353   -2.5096    0.2308 C.ar      1 <0>        -0.0514
     17 C14         8.4983   -1.5160    0.8175 C.ar      1 <0>        -0.0667
     18 C15         7.9012   -0.3505    1.2631 C.ar      1 <0>        -0.0531
     19 C16         6.5406   -0.1700    1.1184 C.ar      1 <0>        -0.1199
     20 N2          9.9590   -1.7009    0.9695 N.pl3     1 <0>         0.0430
     21 O3         10.4832   -2.7188    0.5812 O.2       1 <0>        -0.1720
     22 O4         10.6280   -0.8339    1.4819 O.3       1 <0>        -0.1736
     23 C17         4.1100   -0.9472   -2.2519 C.ar      1 <0>         0.0123
     24 C18         3.7624   -1.9980   -3.0991 C.ar      1 <0>        -0.1097
     25 C19         4.2831   -2.0525   -4.3760 C.ar      1 <0>        -0.1203
     26 C20         5.1484   -1.0669   -4.8155 C.ar      1 <0>        -0.1310
     27 C21         5.4973   -0.0220   -3.9789 C.ar      1 <0>        -0.1215
     28 C22         4.9778    0.0461   -2.7022 C.ar      1 <0>        -0.1089
     29 C23        -1.4183   -0.5670   -0.0798 C.3       1 <0>        -0.1353
     30 H1          1.0039    1.9031    0.0027 H         1 <0>         0.0594
     31 H2         -0.5459    1.8868   -0.8726 H         1 <0>         0.0621
     32 H3         -0.5289    1.8773    0.9072 H         1 <0>         0.0592
     33 H4          0.4910   -1.4923   -1.5142 H         1 <0>         0.0842
     34 H5          0.9181    0.1877   -1.9670 H         1 <0>         0.0831
     35 H6          0.6752    0.1585    2.0637 H         1 <0>         0.0822
     36 H7          0.3204   -1.5130    1.5356 H         1 <0>         0.0866
     37 H8          4.6909   -0.5302    3.0318 H         1 <0>         0.0825
     38 H9          2.9609   -0.3169    3.3921 H         1 <0>         0.0669
     39 H10         5.7783   -3.1193   -0.3713 H         1 <0>         0.1446
     40 H11         8.2067   -3.4179   -0.1146 H         1 <0>         0.1487
     41 H12         8.5017    0.4218    1.7207 H         1 <0>         0.1487
     42 H13         6.0762    0.7424    1.4623 H         1 <0>         0.1429
     43 H14         3.0871   -2.7682   -2.7568 H         1 <0>         0.1205
     44 H15         4.0147   -2.8665   -5.0332 H         1 <0>         0.1182
     45 H16         5.5535   -1.1136   -5.8156 H         1 <0>         0.1157
     46 H17         6.1736    0.7446   -4.3273 H         1 <0>         0.1168
     47 H18         5.2471    0.8650   -2.0515 H         1 <0>         0.1178
     48 H19        -1.8998   -0.2073   -0.9891 H         1 <0>         0.0644
     49 H20        -1.3770   -1.6561   -0.0970 H         1 <0>         0.0625
     50 H21        -1.9898   -0.2386    0.7883 H         1 <0>         0.0617
@<TRIPOS>BOND
     1    1    2 1
     2    1   30 1
     3    1   31 1
     4    1   32 1
     5    2    9 1
     6    2    3 1
     7    2   29 1
     8    3    4 1
     9    3   33 1
    10    3   34 1
    11    4    8 1
    12    4    5 2
    13    5    6 1
    14    5   23 1
    15    6    7 2
    16    6   14 1
    17    7    8 1
    18    7   10 1
    19    8    9 1
    20    9   35 1
    21    9   36 1
    22   10   11 1
    23   10   37 1
    24   10   38 1
    25   11   12 2
    26   11   13 1
    27   14   19 ar
    28   14   15 ar
    29   15   16 ar
    30   15   39 1
    31   16   17 ar
    32   16   40 1
    33   17   18 ar
    34   17   20 1
    35   18   19 ar
    36   18   41 1
    37   19   42 1
    38   20   21 2
    39   20   22 1
    40   23   28 ar
    41   23   24 ar
    42   24   25 ar
    43   24   43 1
    44   25   26 ar
    45   25   44 1
    46   26   27 ar
    47   26   45 1
    48   27   28 ar
    49   27   46 1
    50   28   47 1
    51   29   48 1
    52   29   49 1
    53   29   50 1
@<TRIPOS>MOLECULE
CHEMBL117528
   39    41     0     0     0
SMALL
USER_CHARGES

@<TRIPOS>ATOM
      1 C1         -0.0173    1.4248    0.0099 C.3       1 <0>         0.0229
      2 O1          0.0021   -0.0041    0.0020 O.3       1 <0>        -0.3083
      3 C2          0.6258   -0.6184    1.0415 C.ar      1 <0>         0.1765
      4 C3          1.2018    0.1423    2.0504 C.ar      1 <0>        -0.2176
      5 C4          1.8358   -0.4758    3.1073 C.ar      1 <0>        -0.0222
      6 C5          1.8989   -1.8689    3.1632 C.ar      1 <0>        -0.1063
      7 C6          1.3183   -2.6319    2.1462 C.ar      1 <0>         0.1721
      8 C7          0.6803   -2.0041    1.0943 C.ar      1 <0>        -0.1912
      9 F1          1.3765   -3.9808    2.1947 F         1 <0>        -0.1229
     10 C8          2.5783   -2.5355    4.2946 C.2       1 <0>         0.0434
     11 C9          3.8942   -2.8772    4.3678 C.2       1 <0>         0.0830
     12 N1          4.1063   -3.4591    5.5546 N.2       1 <0>        -0.4677
     13 C10         2.9890   -3.4996    6.2298 C.2       1 <0>         0.2257
     14 N2          2.0050   -2.9284    5.4861 N.pl3     1 <0>        -0.4134
     15 C11         0.6627   -2.7714    5.8579 C.ar      1 <0>         0.1732
     16 C12         0.0439   -1.5358    5.7244 C.ar      1 <0>        -0.1297
     17 C13        -1.2789   -1.3841    6.0916 C.ar      1 <0>        -0.0045
     18 C14        -1.9867   -2.4613    6.5923 C.ar      1 <0>        -0.6566
     19 C15        -1.3732   -3.6932    6.7265 C.ar      1 <0>        -0.0034
     20 C16        -0.0524   -3.8526    6.3551 C.ar      1 <0>        -0.1316
     21 S1         -3.6738   -2.2636    7.0608 S.o2      1 <0>         2.4998
     22 O2         -3.8972   -3.2660    8.0429 O.2       1 <0>        -0.9316
     23 O3         -3.7999   -0.8868    7.3892 O.2       1 <0>        -0.9322
     24 C17        -4.6213   -2.6373    5.5598 C.3       1 <0>        -0.6494
     25 Cl1         5.0882   -2.6063    3.1370 Cl        1 <0>         0.0057
     26 H1          1.0053    1.8021    0.0021 H         1 <0>         0.0618
     27 H2         -0.5445    1.7859   -0.8732 H         1 <0>         0.1067
     28 H3         -0.5275    1.7763    0.9067 H         1 <0>         0.0611
     29 H4          1.1533    1.2204    2.0070 H         1 <0>         0.1435
     30 H5          2.2835    0.1175    3.8909 H         1 <0>         0.1397
     31 H6          0.2269   -2.5921    0.3100 H         1 <0>         0.1506
     32 H7          2.8678   -3.9148    7.2194 H         1 <0>         0.2239
     33 H8          0.5965   -0.6939    5.3340 H         1 <0>         0.1408
     34 H9         -1.7608   -0.4232    5.9880 H         1 <0>         0.1543
     35 H10        -1.9286   -4.5327    7.1179 H         1 <0>         0.1561
     36 H11         0.4249   -4.8161    6.4556 H         1 <0>         0.1456
     37 H12        -4.4085   -3.6574    5.2403 H         1 <0>         0.1332
     38 H13        -5.6865   -2.5365    5.7680 H         1 <0>         0.1365
     39 H14        -4.3384   -1.9424    4.7691 H         1 <0>         0.1326
@<TRIPOS>BOND
     1    1    2 1
     2    1   26 1
     3    1   27 1
     4    1   28 1
     5    2    3 1
     6    3    8 ar
     7    3    4 ar
     8    4    5 ar
     9    4   29 1
    10    5    6 ar
    11    5   30 1
    12    6    7 ar
    13    6   10 1
    14    7    8 ar
    15    7    9 1
    16    8   31 1
    17   10   14 1
    18   10   11 2
    19   11   12 1
    20   11   25 1
    21   12   13 2
    22   13   14 1
    23   13   32 1
    24   14   15 1
    25   15   20 ar
    26   15   16 ar
    27   16   17 ar
    28   16   33 1
    29   17   18 ar
    30   17   34 1
    31   18   19 ar
    32   18   21 1
    33   19   20 ar
    34   19   35 1
    35   20   36 1
    36   21   22 2
    37   21   23 2
    38   21   24 1
    39   24   37 1
    40   24   38 1
    41   24   39 1
@<TRIPOS>MOLECULE
CHEMBL118
   40    42     0     0     0
SMALL
USER_CHARGES

@<TRIPOS>ATOM
      1 C1          0.0405    1.5033    0.0105 C.3       1 <0>        -0.1224
      2 C2          0.0481   -0.0036    0.0022 C.ar      1 <0>        -0.0617
      3 C3         -0.4654   -0.6891   -1.0843 C.ar      1 <0>        -0.1180
      4 C4         -0.4609   -2.0687   -1.0981 C.ar      1 <0>        -0.0762
      5 C5          0.0630   -2.7726   -0.0133 C.ar      1 <0>        -0.0606
      6 C6          0.5793   -2.0754    1.0794 C.ar      1 <0>        -0.0985
      7 C7          0.5738   -0.6957    1.0787 C.ar      1 <0>        -0.1165
      8 C8          0.0704   -4.2518   -0.0214 C.2       1 <0>         0.1497
      9 C9          0.0778   -5.0559   -1.1264 C.2       1 <0>        -0.2047
     10 C10         0.0841   -6.3814   -0.6911 C.2       1 <0>        -0.0034
     11 N1          0.0806   -6.3920    0.6183 N.2       1 <0>        -0.2184
     12 N2          0.0772   -5.0674    1.0740 N.pl3     1 <0>        -0.3181
     13 C11         0.0780   -4.6538    2.4124 C.ar      1 <0>         0.1993
     14 C12        -0.7877   -3.6523    2.8316 C.ar      1 <0>        -0.1310
     15 C13        -0.7845   -3.2467    4.1518 C.ar      1 <0>        -0.0008
     16 C14         0.0799   -3.8365    5.0557 C.ar      1 <0>        -0.6729
     17 C15         0.9432   -4.8341    4.6414 C.ar      1 <0>         0.0013
     18 C16         0.9405   -5.2485    3.3238 C.ar      1 <0>        -0.1237
     19 S1          0.0817   -3.3155    6.7389 S.o2      1 <0>         2.7035
     20 O1          1.3615   -3.6412    7.2635 O.2       1 <0>        -0.9570
     21 O2         -0.4336   -1.9913    6.7547 O.2       1 <0>        -0.9571
     22 N3         -1.0144   -4.2595    7.5449 N.pl3     1 <0>        -1.2487
     23 C17         0.0927   -7.5984   -1.5799 C.3       1 <0>         0.5581
     24 F1          1.4144   -7.9678   -1.8518 F         1 <0>        -0.1637
     25 F2         -0.5625   -8.6523   -0.9339 F         1 <0>        -0.1639
     26 F3         -0.5656   -7.3049   -2.7789 F         1 <0>        -0.1610
     27 H1          0.9639    1.8738   -0.4347 H         1 <0>         0.0767
     28 H2         -0.8113    1.8655   -0.5652 H         1 <0>         0.0714
     29 H3         -0.0366    1.8607    1.0374 H         1 <0>         0.0715
     30 H4         -0.8709   -0.1431   -1.9232 H         1 <0>         0.1331
     31 H5         -0.8624   -2.6027   -1.9467 H         1 <0>         0.1336
     32 H6          0.9862   -2.6145    1.9221 H         1 <0>         0.1246
     33 H7          0.9772   -0.1548    1.9220 H         1 <0>         0.1315
     34 H8          0.0784   -4.7241   -2.1542 H         1 <0>         0.1732
     35 H9         -1.4626   -3.1908    2.1259 H         1 <0>         0.1459
     36 H10        -1.4576   -2.4679    4.4785 H         1 <0>         0.1580
     37 H11         1.6174   -5.2926    5.3496 H         1 <0>         0.1579
     38 H12         1.6117   -6.0309    3.0018 H         1 <0>         0.1479
     39 H13        -1.5085   -4.9443    7.0675 H         1 <0>         0.4179
     40 H14        -1.1624   -4.1277    8.4945 H         1 <0>         0.4235
@<TRIPOS>BOND
     1    1    2 1
     2    1   27 1
     3    1   28 1
     4    1   29 1
     5    2    7 ar
     6    2    3 ar
     7    3    4 ar
     8    3   30 1
     9    4    5 ar
    10    4   31 1
    11    5    6 ar
    12    5    8 1
    13    6    7 ar
    14    6   32 1
    15    7   33 1
    16    8   12 1
    17    8    9 2
    18    9   10 1
    19    9   34 1
    20   10   11 2
    21   10   23 1
    22   11   12 1
    23   12   13 1
    24   13   18 ar
    25   13   14 ar
    26   14   15 ar
    27   14   35 1
    28   15   16 ar
    29   15   36 1
    30   16   17 ar
    31   16   19 1
    32   17   18 ar
    33   17   37 1
    34   18   38 1
    35   19   20 2
    36   19   21 2
    37   19   22 1
    38   22   39 1
    39   22   40 1
    40   23   24 1
    41   23   25 1
    42   23   26 1
@<TRIPOS>MOLECULE
CHEMBL287336
   40    42     0     0     0
SMALL
USER_CHARGES

@<TRIPOS>ATOM
      1 C1         -0.0187    1.5258    0.0104 C.3       1 <0>        -0.1455
      2 C2          0.0021   -0.0041    0.0020 C.3       1 <0>        -0.1467
      3 C3          0.7182   -0.4975   -1.2568 C.3       1 <0>         0.1574
      4 C4          0.6316   -2.0003   -1.3275 C.ar      1 <0>         0.2242
      5 C5         -0.2514   -2.5934   -2.2452 C.ar      1 <0>        -0.3798
      6 C6         -0.3337   -3.9889   -2.3137 C.ar      1 <0>         0.3549
      7 C7          0.4875   -4.7412   -1.4436 C.ar      1 <0>        -0.1974
      8 C8          0.4628   -6.1436   -1.4524 C.ar      1 <0>        -0.0003
      9 C9          1.2685   -6.8372   -0.5998 C.ar      1 <0>        -0.1948
     10 C10         2.1161   -6.1701    0.2806 C.ar      1 <0>        -0.0296
     11 C11         2.1636   -4.8093    0.3144 C.ar      1 <0>        -0.2141
     12 C12         1.3486   -4.0603   -0.5500 C.ar      1 <0>         0.2273
     13 N1          1.3845   -2.7206   -0.5367 N.ar      1 <0>        -0.5707
     14 C13         3.0883   -4.1093    1.2768 C.3       1 <0>         0.5250
     15 F1          3.7901   -5.0607    2.0247 F         1 <0>        -0.1923
     16 F2          3.9935   -3.3180    0.5616 F         1 <0>        -0.1742
     17 F3          2.3395   -3.2994    2.1373 F         1 <0>        -0.1762
     18 O1         -1.1718   -4.5975   -3.1835 O.3       1 <0>        -0.6502
     19 C14        -1.0826   -1.7550   -3.1262 C.2       1 <0>         0.6081
     20 O2         -0.6640   -1.4178   -4.2171 O.2       1 <0>        -0.4750
     21 N2         -2.3071   -1.3615   -2.7232 N.am      1 <0>        -0.6180
     22 C15        -3.0909   -0.5710   -3.5539 C.2       1 <0>         0.3036
     23 N3         -2.8090   -0.1191   -4.7570 N.2       1 <0>        -0.5321
     24 C16        -3.6691    0.6280   -5.4239 C.2       1 <0>         0.0725
     25 C17        -4.8476    0.9049   -4.8137 C.2       1 <0>        -0.2679
     26 S1         -4.6347    0.0355   -3.2689 S.3       1 <0>         0.0759
     27 O3          2.0903   -0.1010   -1.2105 O.3       1 <0>        -0.5489
     28 H1          1.0039    1.9031    0.0027 H         1 <0>         0.0614
     29 H2         -0.5459    1.8868   -0.8726 H         1 <0>         0.0507
     30 H3         -0.5289    1.8773    0.9072 H         1 <0>         0.0528
     31 H4          0.5293   -0.3651    0.8851 H         1 <0>         0.0766
     32 H5         -1.0205   -0.3814    0.0098 H         1 <0>         0.0664
     33 H6          0.2444   -0.0644   -2.1377 H         1 <0>         0.1021
     34 H7         -0.1915   -6.6709   -2.1308 H         1 <0>         0.1322
     35 H8          1.2491   -7.9170   -0.6070 H         1 <0>         0.1250
     36 H9          2.7455   -6.7407    0.9475 H         1 <0>         0.1301
     37 H10        -2.6410   -1.6305   -1.8531 H         1 <0>         0.4223
     38 H11        -3.4438    1.0024   -6.4116 H         1 <0>         0.1706
     39 H12        -5.6857    1.4876   -5.1664 H         1 <0>         0.1933
     40 H13         2.5754   -0.4509   -0.4506 H         1 <0>         0.3813
@<TRIPOS>BOND
     1    1    2 1
     2    1   28 1
     3    1   29 1
     4    1   30 1
     5    2    3 1
     6    2   31 1
     7    2   32 1
     8    3    4 1
     9    3   27 1
    10    3   33 1
    11    4   13 ar
    12    4    5 ar
    13    5    6 ar
    14    5   19 1
    15    6    7 ar
    16    6   18 1
    17    7   12 ar
    18    7    8 ar
    19    8    9 ar
    20    8   34 1
    21    9   10 ar
    22    9   35 1
    23   10   11 ar
    24   10   36 1
    25   11   12 ar
    26   11   14 1
    27   12   13 ar
    28   14   15 1
    29   14   16 1
    30   14   17 1
    31   19   20 2
    32   19   21 am
    33   21   22 1
    34   21   37 1
    35   22   26 1
    36   22   23 2
    37   23   24 1
    38   24   25 2
    39   24   38 1
    40   25   26 1
    41   25   39 1
    42   27   40 1
@<TRIPOS>MOLECULE
CHEMBL287336__1
   41    43     0     0     0
SMALL
USER_CHARGES

@<TRIPOS>ATOM
      1 C1          0.3161    1.5473   -0.0048 C.3       1 <0>        -0.1488
      2 C2          0.2918    0.0176    0.0073 C.3       1 <0>        -0.1586
      3 C3          0.8142   -0.5114   -1.3299 C.3       1 <0>         0.1282
      4 C4          0.6759   -2.0116   -1.3652 C.2       1 <0>         0.2149
      5 C5         -0.1599   -2.5822   -2.3030 C.2       1 <0>        -0.3085
      6 C6         -0.2945   -4.0473   -2.3377 C.2       1 <0>         0.4436
      7 C7          0.4854   -4.8189   -1.3521 C.ar      1 <0>        -0.1846
      8 C8          0.4206   -6.2117   -1.3115 C.ar      1 <0>         0.0072
      9 C9          1.1628   -6.9004   -0.3780 C.ar      1 <0>        -0.1495
     10 C10         1.9712   -6.2147    0.5179 C.ar      1 <0>        -0.0035
     11 C11         2.0450   -4.8397    0.4892 C.ar      1 <0>        -0.2382
     12 C12         1.3031   -4.1225   -0.4463 C.ar      1 <0>         0.2362
     13 N1          1.3726   -2.7469   -0.4887 N.pl3     1 <0>        -0.5921
     14 C13         2.9276   -4.1115    1.4698 C.3       1 <0>         0.5085
     15 F1          3.5655   -5.0387    2.3009 F         1 <0>        -0.1638
     16 F2          3.8887   -3.3720    0.7723 F         1 <0>        -0.1750
     17 F3          2.1481   -3.2478    2.2468 F         1 <0>        -0.1748
     18 O1         -1.0199   -4.5994   -3.1462 O.2       1 <0>        -0.4576
     19 C14        -0.9044   -1.7403   -3.2519 C.2       1 <0>         0.5888
     20 O2         -2.0642   -1.4501   -3.0274 O.2       1 <0>        -0.4483
     21 N2         -0.3015   -1.2903   -4.3702 N.am      1 <0>        -0.6162
     22 C15        -0.9712   -0.4156   -5.2164 C.2       1 <0>         0.2708
     23 N3         -2.1826    0.0810   -5.0864 N.2       1 <0>        -0.5221
     24 C16        -2.6808    0.9085   -5.9864 C.2       1 <0>         0.0630
     25 C17        -1.8898    1.2191   -7.0426 C.2       1 <0>        -0.2440
     26 S1         -0.4273    0.2719   -6.6530 S.3       1 <0>         0.1131
     27 O3          2.1905   -0.1564   -1.4776 O.3       1 <0>        -0.5322
     28 H1          1.3384    1.8932   -0.1580 H         1 <0>         0.0661
     29 H2         -0.3166    1.9144   -0.8130 H         1 <0>         0.0610
     30 H3         -0.0561    1.9242    0.9478 H         1 <0>         0.0653
     31 H4          0.9244   -0.3495    0.8154 H         1 <0>         0.0713
     32 H5         -0.7305   -0.3283    0.1604 H         1 <0>         0.0878
     33 H6          0.2367   -0.0740   -2.1443 H         1 <0>         0.1333
     34 H7         -0.2082   -6.7468   -2.0076 H         1 <0>         0.1555
     35 H8          1.1154   -7.9788   -0.3427 H         1 <0>         0.1515
     36 H9          2.5485   -6.7655    1.2458 H         1 <0>         0.1538
     37 H10         0.6000   -1.5772   -4.5842 H         1 <0>         0.4278
     38 H11        -3.6745    1.3194   -5.8859 H         1 <0>         0.1770
     39 H12        -2.0880    1.8650   -7.8852 H         1 <0>         0.2001
     40 H13         2.7649   -0.5123   -0.7859 H         1 <0>         0.3761
     41 H14         1.9480   -2.2913    0.1456 H         1 <0>         0.4167
@<TRIPOS>BOND
     1    1    2 1
     2    1   28 1
     3    1   29 1
     4    1   30 1
     5    2    3 1
     6    2   31 1
     7    2   32 1
     8    3    4 1
     9    3   27 1
    10    3   33 1
    11    4   13 1
    12    4    5 2
    13    5    6 1
    14    5   19 1
    15    6    7 1
    16    6   18 2
    17    7   12 ar
    18    7    8 ar
    19    8    9 ar
    20    8   34 1
    21    9   10 ar
    22    9   35 1
    23   10   11 ar
    24   10   36 1
    25   11   12 ar
    26   11   14 1
    27   12   13 1
    28   13   41 1
    29   14   15 1
    30   14   16 1
    31   14   17 1
    32   19   20 2
    33   19   21 am
    34   21   22 1
    35   21   37 1
    36   22   26 1
    37   22   23 2
    38   23   24 1
    39   24   25 2
    40   24   38 1
    41   25   26 1
    42   25   39 1
    43   27   40 1
@<TRIPOS>MOLECULE
CHEMBL287336__2
   40    42     0     0     0
SMALL
USER_CHARGES

@<TRIPOS>ATOM
      1 C1         -0.0187    1.5258    0.0104 C.3       1 <0>        -0.1434
      2 C2          0.0021   -0.0041    0.0020 C.3       1 <0>        -0.1476
      3 C3          0.7182   -0.4975   -1.2568 C.3       1 <0>         0.1597
      4 C4          0.8473   -1.9981   -1.2057 C.ar      1 <0>         0.2246
      5 C5          2.0958   -2.5686   -0.9067 C.ar      1 <0>        -0.3807
      6 C6          2.2188   -3.9621   -0.8580 C.ar      1 <0>         0.3551
      7 C7          1.0641   -4.7351   -1.1159 C.ar      1 <0>        -0.1976
      8 C8          1.1063   -6.1368   -1.0853 C.ar      1 <0>        -0.0002
      9 C9         -0.0264   -6.8508   -1.3385 C.ar      1 <0>        -0.1949
     10 C10        -1.2257   -6.2054   -1.6277 C.ar      1 <0>        -0.0295
     11 C11        -1.3002   -4.8459   -1.6656 C.ar      1 <0>        -0.2141
     12 C12        -0.1538   -4.0761   -1.4091 C.ar      1 <0>         0.2275
     13 N1         -0.2071   -2.7373   -1.4356 N.ar      1 <0>        -0.5708
     14 C13        -2.6092   -4.1695   -1.9819 C.3       1 <0>         0.5249
     15 F1         -3.5947   -5.1387   -2.1978 F         1 <0>        -0.1923
     16 F2         -2.9842   -3.3542   -0.9087 F         1 <0>        -0.1754
     17 F3         -2.4640   -3.3876   -3.1330 F         1 <0>        -0.1750
     18 O1          3.4036   -4.5493   -0.5740 O.3       1 <0>        -0.6501
     19 C14         3.2637   -1.7092   -0.6475 C.2       1 <0>         0.6090
     20 O2          3.5071   -1.3392    0.4852 O.2       1 <0>        -0.4775
     21 N2          4.0626   -1.3327   -1.6657 N.am      1 <0>        -0.6176
     22 C15         5.1638   -0.5223   -1.4213 C.2       1 <0>         0.3034
     23 N3          5.5817   -0.0352   -0.2728 N.2       1 <0>        -0.5327
     24 C16         6.6577    0.7269   -0.2059 C.2       1 <0>         0.0719
     25 C17         7.3059    0.9811   -1.3691 C.2       1 <0>        -0.2685
     26 S1          6.2919    0.0690   -2.5214 S.3       1 <0>         0.0782
     27 O3         -0.0359   -0.1233   -2.4115 O.3       1 <0>        -0.5531
     28 H1          1.0039    1.9031    0.0027 H         1 <0>         0.0509
     29 H2         -0.5459    1.8868   -0.8726 H         1 <0>         0.0591
     30 H3         -0.5289    1.8773    0.9072 H         1 <0>         0.0522
     31 H4          0.5293   -0.3651    0.8851 H         1 <0>         0.0740
     32 H5         -1.0205   -0.3814    0.0098 H         1 <0>         0.0740
     33 H6          1.7103   -0.0491   -1.3098 H         1 <0>         0.0990
     34 H7          2.0316   -6.6474   -0.8627 H         1 <0>         0.1322
     35 H8          0.0066   -7.9301   -1.3149 H         1 <0>         0.1249
     36 H9         -2.1107   -6.7919   -1.8255 H         1 <0>         0.1301
     37 H10         3.8685   -1.6278   -2.5691 H         1 <0>         0.4241
     38 H11         7.0058    1.1301    0.7335 H         1 <0>         0.1703
     39 H12         8.1933    1.5699   -1.5487 H         1 <0>         0.1932
     40 H13        -0.9315   -0.4875   -2.4314 H         1 <0>         0.3828
@<TRIPOS>BOND
     1    1    2 1
     2    1   28 1
     3    1   29 1
     4    1   30 1
     5    2    3 1
     6    2   31 1
     7    2   32 1
     8    3    4 1
     9    3   27 1
    10    3   33 1
    11    4   13 ar
    12    4    5 ar
    13    5    6 ar
    14    5   19 1
    15    6    7 ar
    16    6   18 1
    17    7   12 ar
    18    7    8 ar
    19    8    9 ar
    20    8   34 1
    21    9   10 ar
    22    9   35 1
    23   10   11 ar
    24   10   36 1
    25   11   12 ar
    26   11   14 1
    27   12   13 ar
    28   14   15 1
    29   14   16 1
    30   14   17 1
    31   19   20 2
    32   19   21 am
    33   21   22 1
    34   21   37 1
    35   22   26 1
    36   22   23 2
    37   23   24 1
    38   24   25 2
    39   24   38 1
    40   25   26 1
    41   25   39 1
    42   27   40 1
@<TRIPOS>MOLECULE
CHEMBL287336__3
   41    43     0     0     0
SMALL
USER_CHARGES

@<TRIPOS>ATOM
      1 C1          0.1981    1.4442    0.4391 C.3       1 <0>        -0.1502
      2 C2          0.2040   -0.0821    0.3330 C.3       1 <0>        -0.1584
      3 C3          0.7312   -0.4956   -1.0425 C.3       1 <0>         0.1276
      4 C4          0.8530   -1.9965   -1.1034 C.2       1 <0>         0.2138
      5 C5          2.1067   -2.5593   -1.2253 C.2       1 <0>        -0.3076
      6 C6          2.2254   -4.0249   -1.2842 C.2       1 <0>         0.4436
      7 C7          0.9765   -4.8055   -1.2077 C.ar      1 <0>        -0.1844
      8 C8          0.9928   -6.1996   -1.2553 C.ar      1 <0>         0.0072
      9 C9         -0.1925   -6.8967   -1.1808 C.ar      1 <0>        -0.1494
     10 C10        -1.3972   -6.2184   -1.0592 C.ar      1 <0>        -0.0035
     11 C11        -1.4283   -4.8423   -1.0110 C.ar      1 <0>        -0.2381
     12 C12        -0.2418   -4.1165   -1.0845 C.ar      1 <0>         0.2362
     13 N1         -0.2592   -2.7397   -1.0318 N.pl3     1 <0>        -0.5919
     14 C13        -2.7455   -4.1221   -0.8792 C.3       1 <0>         0.5085
     15 F1         -3.7848   -5.0571   -0.8250 F         1 <0>        -0.1638
     16 F2         -2.7440   -3.3581    0.2928 F         1 <0>        -0.1755
     17 F3         -2.9305   -3.2826   -1.9829 F         1 <0>        -0.1744
     18 O1          3.3097   -4.5705   -1.3920 O.2       1 <0>        -0.4571
     19 C14         3.3046   -1.7086   -1.2957 C.2       1 <0>         0.5874
     20 O2          3.8197   -1.4713   -2.3719 O.2       1 <0>        -0.4428
     21 N2          3.8317   -1.1922   -0.1679 N.am      1 <0>        -0.6193
     22 C15         4.8983   -0.3055   -0.2424 C.2       1 <0>         0.2708
     23 N3          5.5140    0.1445   -1.3144 N.2       1 <0>        -0.5206
     24 C16         6.5216    0.9921   -1.2171 C.2       1 <0>         0.0638
     25 C17         6.8880    1.3731    0.0312 C.2       1 <0>        -0.2425
     26 S1          5.7122    0.4596    1.0165 S.3       1 <0>         0.1093
     27 O3         -0.1748   -0.0498   -2.0537 O.3       1 <0>        -0.5285
     28 H1          1.2127    1.8213    0.3105 H         1 <0>         0.0604
     29 H2         -0.4450    1.8599   -0.3365 H         1 <0>         0.0673
     30 H3         -0.1774    1.7388    1.4190 H         1 <0>         0.0661
     31 H4          0.8472   -0.4978    1.1086 H         1 <0>         0.0841
     32 H5         -0.8106   -0.4592    0.4616 H         1 <0>         0.0736
     33 H6          1.7098   -0.0447   -1.2071 H         1 <0>         0.1330
     34 H7          1.9293   -6.7290   -1.3503 H         1 <0>         0.1555
     35 H8         -0.1846   -7.9761   -1.2176 H         1 <0>         0.1515
     36 H9         -2.3205   -6.7758   -1.0020 H         1 <0>         0.1538
     37 H10         3.4661   -1.4397    0.6958 H         1 <0>         0.4254
     38 H11         7.0315    1.3651   -2.0931 H         1 <0>         0.1774
     39 H12         7.6722    2.0469    0.3434 H         1 <0>         0.2004
     40 H13        -1.0674   -0.4122   -1.9694 H         1 <0>         0.3747
     41 H14        -1.1137   -2.2892   -0.9426 H         1 <0>         0.4165
@<TRIPOS>BOND
     1    1    2 1
     2    1   28 1
     3    1   29 1
     4    1   30 1
     5    2    3 1
     6    2   31 1
     7    2   32 1
     8    3    4 1
     9    3   27 1
    10    3   33 1
    11    4   13 1
    12    4    5 2
    13    5    6 1
    14    5   19 1
    15    6    7 1
    16    6   18 2
    17    7   12 ar
    18    7    8 ar
    19    8    9 ar
    20    8   34 1
    21    9   10 ar
    22    9   35 1
    23   10   11 ar
    24   10   36 1
    25   11   12 ar
    26   11   14 1
    27   12   13 1
    28   13   41 1
    29   14   15 1
    30   14   16 1
    31   14   17 1
    32   19   20 2
    33   19   21 am
    34   21   22 1
    35   21   37 1
    36   22   26 1
    37   22   23 2
    38   23   24 1
    39   24   25 2
    40   24   38 1
    41   25   26 1
    42   25   39 1
    43   27   40 1
@<TRIPOS>MOLECULE
CHEMBL332937
   44    46     0     0     0
SMALL
USER_CHARGES

@<TRIPOS>ATOM
      1 C1          0.0566    1.1109   -0.4143 C.3       1 <0>        -0.1376
      2 C2         -0.0024   -0.3918   -0.1324 C.3       1 <0>        -0.0514
      3 C3         -1.4475   -0.8369    0.1944 C.3       1 <0>         0.0538
      4 O1         -1.4933   -0.7454    1.6282 O.3       1 <0>        -0.2893
      5 C4         -0.2434   -0.9301    2.1315 C.ar      1 <0>         0.1539
      6 C5          0.7273   -0.7314    1.1532 C.ar      1 <0>        -0.1694
      7 C6          2.0621   -0.8557    1.4479 C.ar      1 <0>        -0.0242
      8 C7          2.4601   -1.1942    2.7454 C.ar      1 <0>        -0.1899
      9 C8          1.4902   -1.4024    3.7296 C.ar      1 <0>        -0.0236
     10 C9          0.1559   -1.2711    3.4245 C.ar      1 <0>        -0.0989
     11 C10        -0.8822   -1.4982    4.4931 C.3       1 <0>        -0.0225
     12 C11        -0.1892   -1.8566    5.8093 C.3       1 <0>        -0.1491
     13 C12        -1.7072   -0.2235    4.6818 C.3       1 <0>        -0.1410
     14 C13        -1.8039   -2.6448    4.0733 C.3       1 <0>        -0.1413
     15 C14         3.8937   -1.3308    3.0724 C.2       1 <0>         0.4855
     16 O2          4.2318   -1.7444    4.1666 O.2       1 <0>        -0.4442
     17 C15         4.9086   -0.9690    2.0807 C.2       1 <0>        -0.2801
     18 C16         6.2893   -1.1014    2.1525 C.2       1 <0>        -0.0625
     19 C17         6.9874   -0.6691    1.0519 C.2       1 <0>        -0.1878
     20 C18         6.3049   -0.1560   -0.0027 C.2       1 <0>        -0.2337
     21 S1          4.6936   -0.2508    0.4632 S.3       1 <0>         0.2186
     22 C19         0.5633   -1.1890   -1.3094 C.3       1 <0>        -0.1398
     23 H1          1.0969    1.4221   -0.5096 H         1 <0>         0.0649
     24 H2         -0.4740    1.3277   -1.3415 H         1 <0>         0.0671
     25 H3         -0.4111    1.6533    0.4073 H         1 <0>         0.0619
     26 H4         -2.1717   -0.1600   -0.2589 H         1 <0>         0.1110
     27 H5         -1.6188   -1.8624   -0.1326 H         1 <0>         0.0826
     28 H6          2.8034   -0.6923    0.6798 H         1 <0>         0.1262
     29 H7          1.7896   -1.6671    4.7329 H         1 <0>         0.1507
     30 H8          0.4675   -1.0397    6.1084 H         1 <0>         0.0605
     31 H9         -0.9401   -2.0209    6.5822 H         1 <0>         0.0628
     32 H10         0.3985   -2.7647    5.6749 H         1 <0>         0.0607
     33 H11        -2.2008    0.0318    3.7442 H         1 <0>         0.0645
     34 H12        -2.4580   -0.3878    5.4547 H         1 <0>         0.0598
     35 H13        -1.0505    0.5934    4.9809 H         1 <0>         0.0544
     36 H14        -1.2162   -3.5529    3.9389 H         1 <0>         0.0543
     37 H15        -2.5548   -2.8091    4.8462 H         1 <0>         0.0602
     38 H16        -2.2976   -2.3895    3.1356 H         1 <0>         0.0634
     39 H17         6.7822   -1.5175    3.0187 H         1 <0>         0.1500
     40 H18         8.0650   -0.7361    1.0262 H         1 <0>         0.1376
     41 H19         6.7057    0.2229   -0.9313 H         1 <0>         0.1875
     42 H20         1.6057   -0.9127   -1.4678 H         1 <0>         0.0652
     43 H21         0.4992   -2.2549   -1.0906 H         1 <0>         0.0623
     44 H22        -0.0120   -0.9673   -2.2083 H         1 <0>         0.0671
@<TRIPOS>BOND
     1    1    2 1
     2    1   23 1
     3    1   24 1
     4    1   25 1
     5    2    6 1
     6    2    3 1
     7    2   22 1
     8    3    4 1
     9    3   26 1
    10    3   27 1
    11    4    5 1
    12    5   10 ar
    13    5    6 ar
    14    6    7 ar
    15    7    8 ar
    16    7   28 1
    17    8    9 ar
    18    8   15 1
    19    9   10 ar
    20    9   29 1
    21   10   11 1
    22   11   12 1
    23   11   13 1
    24   11   14 1
    25   12   30 1
    26   12   31 1
    27   12   32 1
    28   13   33 1
    29   13   34 1
    30   13   35 1
    31   14   36 1
    32   14   37 1
    33   14   38 1
    34   15   16 2
    35   15   17 1
    36   17   21 1
    37   17   18 2
    38   18   19 1
    39   18   39 1
    40   19   20 2
    41   19   40 1
    42   20   21 1
    43   20   41 1
    44   22   42 1
    45   22   43 1
    46   22   44 1
@<TRIPOS>MOLECULE
CHEMBL60496
   57    59     0     0     0
SMALL
USER_CHARGES

@<TRIPOS>ATOM
      1 C1         -1.4227    1.0099   -1.1326 C.3       1 <0>        -0.1491
      2 C2         -1.2057   -0.5046   -1.1468 C.3       1 <0>        -0.0214
      3 C3         -0.8923   -0.9882    0.2705 C.3       1 <0>        -0.1424
      4 C4         -2.4728   -1.1965   -1.6533 C.3       1 <0>        -0.1428
      5 C5         -0.0527   -0.8383   -2.0580 C.ar      1 <0>        -0.0963
      6 C6          0.6210    0.1701   -2.7133 C.ar      1 <0>        -0.0812
      7 C7          1.6888   -0.1400   -3.5570 C.ar      1 <0>        -0.0963
      8 C8          2.0702   -1.4710   -3.7337 C.ar      1 <0>        -0.1021
      9 C9          1.3915   -2.4739   -3.0748 C.ar      1 <0>        -0.0983
     10 C10         0.3333   -2.1608   -2.2319 C.ar      1 <0>         0.1387
     11 O1         -0.3296   -3.1515   -1.5800 O.3       1 <0>        -0.4844
     12 C11         1.8020   -3.9113   -3.2652 C.3       1 <0>        -0.0210
     13 C12         2.9872   -3.9796   -4.2304 C.3       1 <0>        -0.1509
     14 C13         2.2077   -4.5088   -1.9164 C.3       1 <0>        -0.1426
     15 C14         0.6281   -4.7049   -3.8422 C.3       1 <0>        -0.1432
     16 C15         2.4134    0.9379   -4.2618 C.2       1 <0>         0.0861
     17 C16         3.5387    0.6674   -4.9089 C.2       1 <0>        -0.6895
     18 C17         4.3707   -0.6085   -4.8948 C.3       1 <0>        -0.1082
     19 C18         5.8300   -0.2157   -5.1333 C.3       1 <0>         0.0795
     20 N1          5.9452    0.9137   -6.0646 N.pl3     1 <0>        -0.9641
     21 S1          4.4663    1.6986   -6.0268 S.o2      1 <0>         2.6575
     22 O2          3.8785    1.5671   -7.3138 O.2       1 <0>        -0.9510
     23 O3          4.6668    2.9500   -5.3841 O.2       1 <0>        -0.9543
     24 C19         7.1149    1.2774   -6.8681 C.3       1 <0>         0.1134
     25 C20         8.2865    0.2938   -6.8959 C.3       1 <0>        -0.1782
     26 C21         8.4092    1.6081   -6.1223 C.3       1 <0>        -0.1914
     27 H1         -0.5200    1.5029   -0.7718 H         1 <0>         0.0596
     28 H2         -1.6460    1.3545   -2.1423 H         1 <0>         0.0590
     29 H3         -2.2566    1.2513   -0.4736 H         1 <0>         0.0617
     30 H4         -1.7263   -0.7468    0.9295 H         1 <0>         0.0559
     31 H5         -0.7378   -2.0671    0.2603 H         1 <0>         0.0749
     32 H6          0.0104   -0.4952    0.6313 H         1 <0>         0.0515
     33 H7         -2.6961   -0.8520   -2.6630 H         1 <0>         0.0551
     34 H8         -2.3183   -2.2755   -1.6634 H         1 <0>         0.0579
     35 H9         -3.3068   -0.9551   -0.9943 H         1 <0>         0.0624
     36 H10         0.3228    1.1988   -2.5744 H         1 <0>         0.1375
     37 H11         2.8957   -1.7150   -4.3860 H         1 <0>         0.1536
     38 H12        -1.0804   -3.5119   -2.0714 H         1 <0>         0.3854
     39 H13         3.8236   -3.4142   -3.8194 H         1 <0>         0.0579
     40 H14         3.2842   -5.0193   -4.3681 H         1 <0>         0.0635
     41 H15         2.6982   -3.5540   -5.1914 H         1 <0>         0.0587
     42 H16         1.3634   -4.4601   -1.2288 H         1 <0>         0.0758
     43 H17         2.5047   -5.5485   -2.0541 H         1 <0>         0.0560
     44 H18         3.0441   -3.9434   -1.5054 H         1 <0>         0.0512
     45 H19         0.3391   -4.2792   -4.8031 H         1 <0>         0.0553
     46 H20         0.9250   -5.7446   -3.9799 H         1 <0>         0.0627
     47 H21        -0.2163   -4.6562   -3.1545 H         1 <0>         0.0581
     48 H22         2.0264    1.9461   -4.2498 H         1 <0>         0.1421
     49 H23         4.2743   -1.1017   -3.9276 H         1 <0>         0.1183
     50 H24         4.0342   -1.2776   -5.6867 H         1 <0>         0.1012
     51 H25         6.2837    0.0608   -4.1816 H         1 <0>         0.0773
     52 H26         6.3657   -1.0714   -5.5445 H         1 <0>         0.0943
     53 H27         6.9035    1.8347   -7.7807 H         1 <0>         0.1352
     54 H28         8.1870   -0.6239   -6.3163 H         1 <0>         0.0996
     55 H29         8.8461    0.2037   -7.8269 H         1 <0>         0.1065
     56 H30         9.0495    2.3827   -6.5444 H         1 <0>         0.1055
     57 H31         8.3904    1.5551   -5.0337 H         1 <0>         0.1001
@<TRIPOS>BOND
     1    1    2 1
     2    1   27 1
     3    1   28 1
     4    1   29 1
     5    2    3 1
     6    2    4 1
     7    2    5 1
     8    3   30 1
     9    3   31 1
    10    3   32 1
    11    4   33 1
    12    4   34 1
    13    4   35 1
    14    5   10 ar
    15    5    6 ar
    16    6    7 ar
    17    6   36 1
    18    7    8 ar
    19    7   16 1
    20    8    9 ar
    21    8   37 1
    22    9   10 ar
    23    9   12 1
    24   10   11 1
    25   11   38 1
    26   12   13 1
    27   12   14 1
    28   12   15 1
    29   13   39 1
    30   13   40 1
    31   13   41 1
    32   14   42 1
    33   14   43 1
    34   14   44 1
    35   15   45 1
    36   15   46 1
    37   15   47 1
    38   16   17 2
    39   16   48 1
    40   17   21 1
    41   17   18 1
    42   18   19 1
    43   18   49 1
    44   18   50 1
    45   19   20 1
    46   19   51 1
    47   19   52 1
    48   20   21 1
    49   20   24 1
    50   21   22 2
    51   21   23 2
    52   24   26 1
    53   24   25 1
    54   24   53 1
    55   25   26 1
    56   25   54 1
    57   25   55 1
    58   26   56 1
    59   26   57 1
@<TRIPOS>MOLECULE
CHEMBL71280
   50    53     0     0     0
SMALL
USER_CHARGES

@<TRIPOS>ATOM
      1 C1         -1.3967   -0.8980    0.0627 C.3       1 <0>        -0.1605
      2 C2         -0.0693   -0.1390    0.0084 C.3       1 <0>        -0.1148
      3 C3          0.7134   -0.3875    1.2993 C.3       1 <0>         0.0241
      4 C4          2.0427    0.3737    1.2496 C.3       1 <0>        -0.1117
      5 C5          2.9601   -0.2715    0.2069 C.3       1 <0>        -0.1085
      6 C6          3.4218   -1.6420    0.7162 C.3       1 <0>         0.0094
      7 H1          4.1119   -1.5094    1.5494 H         1 <0>         0.0750
      8 C7          2.2126   -2.4149    1.1784 C.2       1 <0>        -0.1744
      9 C8          1.0078   -1.8627    1.4380 C.2       1 <0>         0.1695
     10 N1          0.1276   -2.8350    1.8354 N.pl3     1 <0>        -0.5800
     11 H2         -0.8000   -2.6834    2.0753 H         1 <0>         0.4073
     12 C9          0.7523   -4.0487    1.8430 C.ar      1 <0>         0.0935
     13 C10         2.0930   -3.8362    1.4296 C.ar      1 <0>        -0.0787
     14 C11         2.9992   -4.8962    1.3337 C.ar      1 <0>        -0.0795
     15 C12         2.5299   -6.1455    1.6580 C.ar      1 <0>        -0.1583
     16 C13         1.2226   -6.3584    2.0623 C.ar      1 <0>        -0.1197
     17 C14         0.3039   -5.3278    2.1645 C.ar      1 <0>        -0.1315
     18 C15         4.1204   -2.4012   -0.4136 C.3       1 <0>        -0.0778
     19 C16         5.3832   -1.6755   -0.8006 C.ar      1 <0>        -0.0665
     20 C17         5.3480   -0.7019   -1.7813 C.ar      1 <0>        -0.1161
     21 C18         6.5064   -0.0363   -2.1363 C.ar      1 <0>        -0.1215
     22 C19         7.6998   -0.3440   -1.5103 C.ar      1 <0>        -0.1329
     23 C20         7.7348   -1.3169   -0.5290 C.ar      1 <0>        -0.1197
     24 C21         6.5757   -1.9796   -0.1710 C.ar      1 <0>        -0.1177
     25 C22        -0.1099    0.0869    2.4985 C.3       1 <0>        -0.1838
     26 C23         0.6436   -0.2024    3.7712 C.2       1 <0>         0.4874
     27 O1          1.6866   -0.8327    3.7323 O.co2     1 <0>        -0.6677
     28 O2          0.2103    0.1938    4.8397 O.co2     1 <0>        -0.7104
     29 H3         -1.9746   -0.5584    0.9222 H         1 <0>         0.0577
     30 H4         -1.9603   -0.7102   -0.8512 H         1 <0>         0.0505
     31 H5         -1.2009   -1.9662    0.1557 H         1 <0>         0.0528
     32 H6          0.5143   -0.4883   -0.8433 H         1 <0>         0.0634
     33 H7         -0.2650    0.9280   -0.0982 H         1 <0>         0.0642
     34 H8          1.8567    1.4125    0.9771 H         1 <0>         0.0521
     35 H9          2.5208    0.3345    2.2284 H         1 <0>         0.1012
     36 H10         2.4159   -0.3957   -0.7293 H         1 <0>         0.0561
     37 H11         3.8283    0.3666    0.0417 H         1 <0>         0.0598
     38 H12         4.0205   -4.7401    1.0190 H         1 <0>         0.1219
     39 H13         3.2016   -6.9888    1.5953 H         1 <0>         0.1073
     40 H14         0.9086   -7.3630    2.3046 H         1 <0>         0.1099
     41 H15        -0.7131   -5.5069    2.4809 H         1 <0>         0.1180
     42 H16         4.3685   -3.4075   -0.0761 H         1 <0>         0.0749
     43 H17         3.4566   -2.4606   -1.2762 H         1 <0>         0.0689
     44 H18         4.4156   -0.4616   -2.2704 H         1 <0>         0.1199
     45 H19         6.4790    0.7239   -2.9030 H         1 <0>         0.1168
     46 H20         8.6050    0.1756   -1.7882 H         1 <0>         0.1155
     47 H21         8.6673   -1.5575   -0.0401 H         1 <0>         0.1174
     48 H22         6.6023   -2.7371    0.5983 H         1 <0>         0.1207
     49 H23        -0.2864    1.1594    2.4166 H         1 <0>         0.0623
     50 H24        -1.0648   -0.4384    2.5143 H         1 <0>         0.0540
@<TRIPOS>BOND
     1    1    2 1
     2    1   29 1
     3    1   30 1
     4    1   31 1
     5    2    3 1
     6    2   32 1
     7    2   33 1
     8    3    9 1
     9    3    4 1
    10    3   25 1
    11    4    5 1
    12    4   34 1
    13    4   35 1
    14    5    6 1
    15    5   36 1
    16    5   37 1
    17    6    7 1
    18    6    8 1
    19    6   18 1
    20    8   13 1
    21    8    9 2
    22    9   10 1
    23   10   11 1
    24   10   12 1
    25   12   17 ar
    26   12   13 ar
    27   13   14 ar
    28   14   15 ar
    29   14   38 1
    30   15   16 ar
    31   15   39 1
    32   16   17 ar
    33   16   40 1
    34   17   41 1
    35   18   19 1
    36   18   42 1
    37   18   43 1
    38   19   24 ar
    39   19   20 ar
    40   20   21 ar
    41   20   44 1
    42   21   22 ar
    43   21   45 1
    44   22   23 ar
    45   22   46 1
    46   23   24 ar
    47   23   47 1
    48   24   48 1
    49   25   26 1
    50   25   49 1
    51   25   50 1
    52   26   27 2
    53   26   28 1
@<TRIPOS>MOLECULE
CHEMBL71280__1
   50    53     0     0     0
SMALL
USER_CHARGES

@<TRIPOS>ATOM
      1 C1         -1.3814   -0.6962   -0.0201 C.3       1 <0>        -0.1489
      2 C2         -0.0446    0.0426    0.0694 C.3       1 <0>        -0.1235
      3 C3          0.7038   -0.4077    1.3255 C.3       1 <0>         0.0321
      4 C4         -0.0843    0.0105    2.5717 C.3       1 <0>        -0.1124
      5 C5          0.5295   -0.6521    3.8083 C.3       1 <0>        -0.1157
      6 C6          0.2463   -2.1585    3.7698 C.3       1 <0>         0.0030
      7 H1         -0.8153   -2.3358    3.9419 H         1 <0>         0.0703
      8 C7          0.6339   -2.6855    2.4115 C.2       1 <0>        -0.1820
      9 C8          0.8390   -1.9123    1.3234 C.2       1 <0>         0.1202
     10 N1          1.1793   -2.6979    0.2534 N.pl3     1 <0>        -0.5828
     11 H2          1.3761   -2.3710   -0.6384 H         1 <0>         0.4124
     12 C9          1.1999   -4.0095    0.6310 C.ar      1 <0>         0.0913
     13 C10         0.8556   -4.0583    2.0068 C.ar      1 <0>        -0.0878
     14 C11         0.7883   -5.2730    2.6951 C.ar      1 <0>        -0.0751
     15 C12         1.0679   -6.4098    1.9770 C.ar      1 <0>        -0.1557
     16 C13         1.4022   -6.3682    0.6337 C.ar      1 <0>        -0.1132
     17 C14         1.4809   -5.1792   -0.0713 C.ar      1 <0>        -0.1310
     18 C15         1.0668   -2.8633    4.8519 C.3       1 <0>        -0.0763
     19 C16         0.6031   -2.4068    6.2112 C.ar      1 <0>        -0.0699
     20 C17         1.1861   -1.3035    6.8059 C.ar      1 <0>        -0.1121
     21 C18         0.7607   -0.8848    8.0527 C.ar      1 <0>        -0.1184
     22 C19        -0.2481   -1.5691    8.7047 C.ar      1 <0>        -0.1309
     23 C20        -0.8317   -2.6719    8.1096 C.ar      1 <0>        -0.1221
     24 C21        -0.4092   -3.0881    6.8609 C.ar      1 <0>        -0.1202
     25 C22         2.0931    0.2327    1.3530 C.3       1 <0>        -0.1726
     26 C23         1.9540    1.7316    1.4249 C.2       1 <0>         0.4978
     27 O1          0.8518    2.2462    1.3417 O.co2     1 <0>        -0.6830
     28 O2          2.9435    2.4296    1.5663 O.co2     1 <0>        -0.7025
     29 H3         -1.9970   -0.4392    0.8419 H         1 <0>         0.0562
     30 H4         -1.8973   -0.4043   -0.9349 H         1 <0>         0.0440
     31 H5         -1.2024   -1.7713   -0.0312 H         1 <0>         0.0425
     32 H6          0.5555   -0.1840   -0.8119 H         1 <0>         0.0383
     33 H7         -0.2255    1.1163    0.1195 H         1 <0>         0.1156
     34 H8         -0.0425    1.0942    2.6814 H         1 <0>         0.1107
     35 H9         -1.1225   -0.3047    2.4679 H         1 <0>         0.0537
     36 H10         1.6065   -0.4844    3.8142 H         1 <0>         0.0639
     37 H11         0.0890   -0.2220    4.7079 H         1 <0>         0.0621
     38 H12         0.5289   -5.3156    3.7426 H         1 <0>         0.1254
     39 H13         1.0261   -7.3668    2.4758 H         1 <0>         0.1108
     40 H14         1.6126   -7.2943    0.1196 H         1 <0>         0.1134
     41 H15         1.7435   -5.1600   -1.1187 H         1 <0>         0.1214
     42 H16         0.9324   -3.9415    4.7653 H         1 <0>         0.0732
     43 H17         2.1213   -2.6173    4.7263 H         1 <0>         0.0720
     44 H18         1.9742   -0.7688    6.2965 H         1 <0>         0.1233
     45 H19         1.2166   -0.0232    8.5177 H         1 <0>         0.1193
     46 H20        -0.5799   -1.2425    9.6791 H         1 <0>         0.1162
     47 H21        -1.6196   -3.2068    8.6191 H         1 <0>         0.1168
     48 H22        -0.8678   -3.9474    6.3943 H         1 <0>         0.1184
     49 H23         2.6403   -0.1237    2.2257 H         1 <0>         0.0613
     50 H24         2.6362   -0.0387    0.4477 H         1 <0>         0.0508
@<TRIPOS>BOND
     1    1    2 1
     2    1   29 1
     3    1   30 1
     4    1   31 1
     5    2    3 1
     6    2   32 1
     7    2   33 1
     8    3    9 1
     9    3    4 1
    10    3   25 1
    11    4    5 1
    12    4   34 1
    13    4   35 1
    14    5    6 1
    15    5   36 1
    16    5   37 1
    17    6    7 1
    18    6    8 1
    19    6   18 1
    20    8   13 1
    21    8    9 2
    22    9   10 1
    23   10   11 1
    24   10   12 1
    25   12   17 ar
    26   12   13 ar
    27   13   14 ar
    28   14   15 ar
    29   14   38 1
    30   15   16 ar
    31   15   39 1
    32   16   17 ar
    33   16   40 1
    34   17   41 1
    35   18   19 1
    36   18   42 1
    37   18   43 1
    38   19   24 ar
    39   19   20 ar
    40   20   21 ar
    41   20   44 1
    42   21   22 ar
    43   21   45 1
    44   22   23 ar
    45   22   46 1
    46   23   24 ar
    47   23   47 1
    48   24   48 1
    49   25   26 1
    50   25   49 1
    51   25   50 1
    52   26   27 2
    53   26   28 1
@<TRIPOS>MOLECULE
CHEMBL363270
   45    47     0     0     0
SMALL
USER_CHARGES

@<TRIPOS>ATOM
      1 C1          0.1793    1.6347   -0.1374 C.3       1 <0>         0.1168
      2 N1          0.3624    0.1813   -0.1186 N.pl3     1 <0>        -0.6849
      3 C2          0.6225   -0.5079    1.1477 C.3       1 <0>         0.1166
      4 C3          0.2890   -0.5471   -1.3078 C.ar      1 <0>         0.1934
      5 C4          1.4377   -0.7668   -2.0590 C.ar      1 <0>        -0.1106
      6 C5          1.3680   -1.4852   -3.2335 C.ar      1 <0>        -0.0869
      7 C6          0.1435   -1.9924   -3.6683 C.ar      1 <0>        -0.0528
      8 C7         -1.0081   -1.7715   -2.9132 C.ar      1 <0>        -0.0803
      9 C8         -0.9326   -1.0565   -1.7359 C.ar      1 <0>        -0.0420
     10 Cl1        -2.3639   -0.7868   -0.7914 Cl        1 <0>        -0.0545
     11 C9          0.0663   -2.7644   -4.9307 C.ar      1 <0>        -0.0349
     12 C10        -0.6205   -2.2405   -6.0380 C.ar      1 <0>        -0.0315
     13 C11        -0.6862   -2.9742   -7.2191 C.ar      1 <0>        -0.0791
     14 C12        -0.0784   -4.2111   -7.2997 C.ar      1 <0>        -0.1188
     15 C13         0.5997   -4.7312   -6.2088 C.ar      1 <0>         0.0789
     16 C14         0.6798   -4.0120   -5.0278 C.ar      1 <0>         0.0844
     17 F1          1.3474   -4.5216   -3.9696 F         1 <0>        -0.1167
     18 F2          1.1899   -5.9431   -6.2993 F         1 <0>        -0.1219
     19 C15        -1.2728   -0.9124   -5.9493 C.ar      1 <0>         0.0130
     20 C16        -0.5278    0.2107   -5.5927 C.ar      1 <0>        -0.1152
     21 C17        -1.1404    1.4446   -5.5122 C.ar      1 <0>        -0.0139
     22 C18        -2.4911    1.5683   -5.7844 C.ar      1 <0>        -0.6704
     23 C19        -3.2354    0.4574   -6.1387 C.ar      1 <0>        -0.0142
     24 C20        -2.6325   -0.7807   -6.2276 C.ar      1 <0>        -0.1239
     25 S1         -3.2665    3.1470   -5.6790 S.o2      1 <0>         2.6976
     26 O1         -4.6481    2.9064   -5.4494 O.2       1 <0>        -0.9605
     27 O2         -2.4732    3.9311   -4.7986 O.2       1 <0>        -0.9602
     28 N2         -3.1506    3.8503   -7.1737 N.pl3     1 <0>        -1.2497
     29 H1          1.1443    2.1207   -0.2813 H         1 <0>         0.0377
     30 H2         -0.4896    1.9061   -0.9542 H         1 <0>         0.0563
     31 H3         -0.2531    1.9587    0.8092 H         1 <0>         0.0613
     32 H4         -0.3234   -0.8043    1.6010 H         1 <0>         0.0380
     33 H5          1.2294   -1.3938    0.9612 H         1 <0>         0.0546
     34 H6          1.1550    0.1617    1.8231 H         1 <0>         0.0614
     35 H7          2.3857   -0.3741   -1.7223 H         1 <0>         0.1372
     36 H8          2.2609   -1.6548   -3.8169 H         1 <0>         0.1318
     37 H9         -1.9572   -2.1633   -3.2478 H         1 <0>         0.1340
     38 H10        -1.2135   -2.5756   -8.0731 H         1 <0>         0.1488
     39 H11        -0.1320   -4.7768   -8.2181 H         1 <0>         0.1543
     40 H12         0.5267    0.1153   -5.3797 H         1 <0>         0.1355
     41 H13        -0.5644    2.3154   -5.2358 H         1 <0>         0.1457
     42 H14        -4.2896    0.5600   -6.3501 H         1 <0>         0.1475
     43 H15        -3.2137   -1.6465   -6.5087 H         1 <0>         0.1392
     44 H16        -2.7115    3.3788   -7.8988 H         1 <0>         0.4169
     45 H17        -3.5218    4.7337   -7.3242 H         1 <0>         0.4220
@<TRIPOS>BOND
     1    1    2 1
     2    1   29 1
     3    1   30 1
     4    1   31 1
     5    2    3 1
     6    2    4 1
     7    3   32 1
     8    3   33 1
     9    3   34 1
    10    4    9 ar
    11    4    5 ar
    12    5    6 ar
    13    5   35 1
    14    6    7 ar
    15    6   36 1
    16    7    8 ar
    17    7   11 1
    18    8    9 ar
    19    8   37 1
    20    9   10 1
    21   11   16 ar
    22   11   12 ar
    23   12   13 ar
    24   12   19 1
    25   13   14 ar
    26   13   38 1
    27   14   15 ar
    28   14   39 1
    29   15   16 ar
    30   15   18 1
    31   16   17 1
    32   19   24 ar
    33   19   20 ar
    34   20   21 ar
    35   20   40 1
    36   21   22 ar
    37   21   41 1
    38   22   23 ar
    39   22   25 1
    40   23   24 ar
    41   23   42 1
    42   24   43 1
    43   25   26 2
    44   25   27 2
    45   25   28 1
    46   28   44 1
    47   28   45 1
@<TRIPOS>MOLECULE
CHEMBL277409
   48    51     0     0     0
SMALL
USER_CHARGES

@<TRIPOS>ATOM
      1 C1         -0.0168    1.3904    0.0097 C.ar      1 <0>        -0.0596
      2 C2          1.1697    2.0941    0.0021 C.ar      1 <0>        -0.1528
      3 C3          2.3789    1.4177   -0.0135 C.ar      1 <0>         0.1048
      4 C4          2.4029    0.0323   -0.0212 C.ar      1 <0>        -0.1516
      5 C5          1.2217   -0.6803   -0.0133 C.ar      1 <0>        -0.0732
      6 C6          0.0021   -0.0041    0.0020 C.ar      1 <0>        -0.0199
      7 C7         -1.2693   -0.7646    0.0106 C.2       1 <0>         0.0782
      8 C8         -1.5085   -1.9682   -0.6283 C.2       1 <0>         0.0222
      9 N1         -2.8148   -2.2987   -0.3462 N.pl3     1 <0>        -0.5502
     10 H1         -3.2857   -3.0904   -0.6502 H         1 <0>         0.4212
     11 C9         -3.3193   -1.3180    0.4323 C.2       1 <0>         0.2061
     12 N2         -2.4027   -0.4151    0.6460 N.2       1 <0>        -0.4534
     13 C10        -4.7242   -1.2758    0.9760 C.3       1 <0>         0.2262
     14 C11        -4.9215   -2.4018    1.9544 C.3       1 <0>        -0.1481
     15 C12        -6.3561   -2.9630    1.9258 C.3       1 <0>        -0.1047
     16 C13        -7.4271   -1.8601    1.8244 C.3       1 <0>        -0.1251
     17 C14        -7.1200   -0.6768    2.7017 C.3       1 <0>        -0.1184
     18 C15        -6.3680    0.3747    1.8605 C.3       1 <0>        -0.1177
     19 C16        -4.9548    0.0596    1.7127 C.3       1 <0>        -0.0859
     20 O1         -5.6584   -1.3990   -0.0983 O.3       1 <0>        -0.5315
     21 C17        -0.5556   -2.7416   -1.4476 C.ar      1 <0>         0.0259
     22 C18         0.2539   -2.1091   -2.4008 C.ar      1 <0>        -0.1449
     23 C19         1.1300   -2.8707   -3.1440 C.ar      1 <0>         0.1077
     24 N3          1.2116   -4.1762   -2.9676 N.ar      1 <0>        -0.4795
     25 C20         0.4682   -4.8118   -2.0812 C.ar      1 <0>         0.1070
     26 C21        -0.4304   -4.1285   -1.2903 C.ar      1 <0>        -0.1674
     27 F1          3.5382    2.1112   -0.0217 F         1 <0>        -0.1374
     28 H2         -0.9588    1.9185    0.0260 H         1 <0>         0.1388
     29 H3          1.1560    3.1740    0.0081 H         1 <0>         0.1397
     30 H4          3.3478   -0.4905   -0.0337 H         1 <0>         0.1382
     31 H5          1.2414   -1.7601   -0.0196 H         1 <0>         0.1288
     32 H6         -4.2241   -3.2043    1.7140 H         1 <0>         0.0581
     33 H7         -4.7050   -2.0382    2.9589 H         1 <0>         0.0831
     34 H8         -6.4558   -3.6296    1.0692 H         1 <0>         0.0568
     35 H9         -6.5274   -3.5366    2.8367 H         1 <0>         0.0621
     36 H10        -7.4909   -1.5246    0.7893 H         1 <0>         0.0855
     37 H11        -8.3908   -2.2763    2.1182 H         1 <0>         0.0527
     38 H12        -8.0493   -0.2487    3.0776 H         1 <0>         0.0622
     39 H13        -6.4949   -0.9927    3.5370 H         1 <0>         0.0610
     40 H14        -6.8233    0.4269    0.8715 H         1 <0>         0.0726
     41 H15        -6.4642    1.3473    2.3430 H         1 <0>         0.0620
     42 H16        -4.5011   -0.0001    2.7020 H         1 <0>         0.0762
     43 H17        -4.4714    0.8599    1.1524 H         1 <0>         0.0799
     44 H18        -5.5732   -2.2204   -0.6014 H         1 <0>         0.3691
     45 H19         0.1920   -1.0413   -2.5510 H         1 <0>         0.1401
     46 H20         1.7581   -2.3926   -3.8811 H         1 <0>         0.1623
     47 H21         0.5684   -5.8815   -1.9713 H         1 <0>         0.1603
     48 H22        -1.0322   -4.6544   -0.5639 H         1 <0>         0.1329
@<TRIPOS>BOND
     1    1    6 ar
     2    1    2 ar
     3    1   28 1
     4    2    3 ar
     5    2   29 1
     6    3    4 ar
     7    3   27 1
     8    4    5 ar
     9    4   30 1
    10    5    6 ar
    11    5   31 1
    12    6    7 1
    13    7   12 1
    14    7    8 2
    15    8    9 1
    16    8   21 1
    17    9   10 1
    18    9   11 1
    19   11   12 2
    20   11   13 1
    21   13   19 1
    22   13   14 1
    23   13   20 1
    24   14   15 1
    25   14   32 1
    26   14   33 1
    27   15   16 1
    28   15   34 1
    29   15   35 1
    30   16   17 1
    31   16   36 1
    32   16   37 1
    33   17   18 1
    34   17   38 1
    35   17   39 1
    36   18   19 1
    37   18   40 1
    38   18   41 1
    39   19   42 1
    40   19   43 1
    41   20   44 1
    42   21   26 ar
    43   21   22 ar
    44   22   23 ar
    45   22   45 1
    46   23   24 ar
    47   23   46 1
    48   24   25 ar
    49   25   26 ar
    50   25   47 1
    51   26   48 1
@<TRIPOS>MOLECULE
CHEMBL277409__1
   49    52     0     0     0
SMALL
USER_CHARGES

@<TRIPOS>ATOM
      1 C1         -0.1057    1.4458    0.3071 C.ar      1 <0>        -0.0594
      2 C2          1.0570    2.1868    0.3530 C.ar      1 <0>        -0.1475
      3 C3          2.2849    1.5636    0.1989 C.ar      1 <0>         0.1449
      4 C4          2.3517    0.1941   -0.0015 C.ar      1 <0>        -0.1469
      5 C5          1.1947   -0.5556   -0.0485 C.ar      1 <0>        -0.0418
      6 C6         -0.0437    0.0671    0.1056 C.ar      1 <0>        -0.0893
      7 C7         -1.2894   -0.7334    0.0559 C.2       1 <0>         0.1126
      8 C8         -1.5289   -1.9188    0.7278 C.2       1 <0>         0.1175
      9 N1         -2.8071   -2.3005    0.3874 N.pl3     1 <0>        -0.4870
     10 H1         -3.2714   -3.0940    0.6968 H         1 <0>         0.4657
     11 C9         -3.2953   -1.3662   -0.4559 C.cat     1 <0>         0.3036
     12 N2         -2.3986   -0.4387   -0.6463 N.pl3     1 <0>        -0.4631
     13 C10        -4.6681   -1.3887   -1.0773 C.3       1 <0>         0.1970
     14 C11        -4.5459   -1.5671   -2.5665 C.3       1 <0>        -0.1540
     15 C12        -5.6467   -0.8185   -3.3421 C.3       1 <0>        -0.1080
     16 C13        -7.0332   -0.9438   -2.6822 C.3       1 <0>        -0.1309
     17 C14        -7.3077   -2.3351   -2.1790 C.3       1 <0>        -0.1207
     18 C15        -6.9099   -2.4050   -0.6904 C.3       1 <0>        -0.1235
     19 C16        -5.4759   -2.5722   -0.5066 C.3       1 <0>        -0.1055
     20 O1         -5.3447   -0.1631   -0.7908 O.3       1 <0>        -0.5066
     21 C17        -0.6011   -2.6309    1.6275 C.ar      1 <0>        -0.0223
     22 C18         0.0961   -1.9462    2.6320 C.ar      1 <0>        -0.1284
     23 C19         0.9527   -2.6514    3.4498 C.ar      1 <0>         0.1179
     24 N3          1.1202   -3.9516    3.2961 N.ar      1 <0>        -0.4566
     25 C20         0.4838   -4.6351    2.3634 C.ar      1 <0>         0.1173
     26 C21        -0.3968   -4.0119    1.5054 C.ar      1 <0>        -0.1480
     27 F1          3.4208    2.2936    0.2437 F         1 <0>        -0.1200
     28 H2         -1.0621    1.9318    0.4314 H         1 <0>         0.1390
     29 H3          1.0100    3.2544    0.5090 H         1 <0>         0.1533
     30 H4          3.3111   -0.2870   -0.1215 H         1 <0>         0.1533
     31 H5          1.2477   -1.6228   -0.2051 H         1 <0>         0.1402
     32 H6         -3.5730   -1.1951   -2.8876 H         1 <0>         0.0683
     33 H7         -4.6099   -2.6297   -2.8007 H         1 <0>         0.0977
     34 H8         -5.3795    0.2366   -3.4011 H         1 <0>         0.0655
     35 H9         -5.7008   -1.2222   -4.3532 H         1 <0>         0.0761
     36 H10        -7.0893   -0.2484   -1.8448 H         1 <0>         0.0860
     37 H11        -7.7968   -0.6759   -3.4124 H         1 <0>         0.0648
     38 H12        -8.3689   -2.5602   -2.2854 H         1 <0>         0.0736
     39 H13        -6.7191   -3.0536   -2.7494 H         1 <0>         0.0647
     40 H14        -7.2240   -1.4850   -0.1975 H         1 <0>         0.0824
     41 H15        -7.4257   -3.2457   -0.2263 H         1 <0>         0.0766
     42 H16        -5.1604   -3.4883   -1.0060 H         1 <0>         0.0925
     43 H17        -5.2647   -2.6626    0.5589 H         1 <0>         0.0706
     44 H18        -4.8936    0.6233   -1.1273 H         1 <0>         0.3829
     45 H19        -0.0355   -0.8822    2.7631 H         1 <0>         0.1459
     46 H20         1.4946   -2.1328    4.2269 H         1 <0>         0.1725
     47 H21         0.6520   -5.6982    2.2740 H         1 <0>         0.1720
     48 H22        -0.9175   -4.5783    0.7475 H         1 <0>         0.1423
     49 H23        -2.5129    0.3426   -1.2097 H         1 <0>         0.4626
@<TRIPOS>BOND
     1    1    6 ar
     2    1    2 ar
     3    1   28 1
     4    2    3 ar
     5    2   29 1
     6    3    4 ar
     7    3   27 1
     8    4    5 ar
     9    4   30 1
    10    5    6 ar
    11    5   31 1
    12    6    7 1
    13    7   12 1
    14    7    8 2
    15    8    9 1
    16    8   21 1
    17    9   10 1
    18    9   11 1
    19   11   12 2
    20   11   13 1
    21   12   49 1
    22   13   19 1
    23   13   14 1
    24   13   20 1
    25   14   15 1
    26   14   32 1
    27   14   33 1
    28   15   16 1
    29   15   34 1
    30   15   35 1
    31   16   17 1
    32   16   36 1
    33   16   37 1
    34   17   18 1
    35   17   38 1
    36   17   39 1
    37   18   19 1
    38   18   40 1
    39   18   41 1
    40   19   42 1
    41   19   43 1
    42   20   44 1
    43   21   26 ar
    44   21   22 ar
    45   22   23 ar
    46   22   45 1
    47   23   24 ar
    48   23   46 1
    49   24   25 ar
    50   25   26 ar
    51   25   47 1
    52   26   48 1
@<TRIPOS>MOLECULE
CHEMBL277409__2
   48    51     0     0     0
SMALL
USER_CHARGES

@<TRIPOS>ATOM
      1 C1         -0.0169    1.3923    0.0097 C.ar      1 <0>        -0.0783
      2 C2          1.1694    2.0953    0.0021 C.ar      1 <0>        -0.1495
      3 C3          2.3789    1.4187   -0.0135 C.ar      1 <0>         0.1116
      4 C4          2.4038    0.0331   -0.0216 C.ar      1 <0>        -0.1473
      5 C5          1.2238   -0.6805   -0.0142 C.ar      1 <0>        -0.0575
      6 C6          0.0021   -0.0041    0.0020 C.ar      1 <0>        -0.0379
      7 C7         -1.2650   -0.7626    0.0105 C.2       1 <0>         0.0479
      8 C8         -1.5835   -1.8562   -0.7746 C.2       1 <0>         0.0550
      9 N1         -2.8328   -2.2386   -0.4476 N.2       1 <0>        -0.4472
     10 H1         -2.4509    0.1736    1.4690 H         1 <0>         0.4215
     11 C9         -3.2995   -1.4544    0.4828 C.2       1 <0>         0.2011
     12 N2         -2.3620   -0.5272    0.8043 N.pl3     1 <0>        -0.5547
     13 C10        -4.6659   -1.5640    1.1089 C.3       1 <0>         0.2274
     14 C11        -5.4861   -0.3555    0.7472 C.3       1 <0>        -0.1479
     15 C12        -6.4492    0.0624    1.8747 C.3       1 <0>        -0.1047
     16 C13        -7.1398   -1.1398    2.5467 C.3       1 <0>        -0.1251
     17 C14        -7.5816   -2.1795    1.5528 C.3       1 <0>        -0.1184
     18 C15        -6.4743   -3.2468    1.4354 C.3       1 <0>        -0.1176
     19 C16        -5.3821   -2.8206    0.5730 C.3       1 <0>        -0.0861
     20 O1         -4.5373   -1.6539    2.5293 O.3       1 <0>        -0.5317
     21 C17        -0.7109   -2.4900   -1.7885 C.ar      1 <0>         0.0411
     22 C18         0.1685   -1.7228   -2.5612 C.ar      1 <0>        -0.1595
     23 C19         0.9633   -2.3542   -3.4944 C.ar      1 <0>         0.1013
     24 N3          0.9023   -3.6617   -3.6630 N.ar      1 <0>        -0.4843
     25 C20         0.0874   -4.4217   -2.9557 C.ar      1 <0>         0.1006
     26 C21        -0.7382   -3.8737   -1.9969 C.ar      1 <0>        -0.1468
     27 F1          3.5381    2.1126   -0.0213 F         1 <0>        -0.1338
     28 H2         -0.9587    1.9205    0.0260 H         1 <0>         0.1316
     29 H3          1.1560    3.1752    0.0081 H         1 <0>         0.1417
     30 H4          3.3492   -0.4890   -0.0342 H         1 <0>         0.1434
     31 H5          1.2443   -1.7602   -0.0213 H         1 <0>         0.1360
     32 H6         -4.8140    0.4752    0.5315 H         1 <0>         0.0583
     33 H7         -6.0667   -0.5783   -0.1480 H         1 <0>         0.0827
     34 H8         -5.8884    0.6129    2.6300 H         1 <0>         0.0569
     35 H9         -7.2133    0.7193    1.4590 H         1 <0>         0.0619
     36 H10        -6.4446   -1.5976    3.2505 H         1 <0>         0.0855
     37 H11        -8.0115   -0.7840    3.0960 H         1 <0>         0.0527
     38 H12        -8.5048   -2.6460    1.8968 H         1 <0>         0.0622
     39 H13        -7.7440   -1.7120    0.5816 H         1 <0>         0.0609
     40 H14        -6.0784   -3.4555    2.4293 H         1 <0>         0.0726
     41 H15        -6.9072   -4.1616    1.0307 H         1 <0>         0.0619
     42 H16        -5.7792   -2.6045   -0.4188 H         1 <0>         0.0759
     43 H17        -4.6587   -3.6319    0.4925 H         1 <0>         0.0797
     44 H18        -4.1000   -0.8921    2.9336 H         1 <0>         0.3691
     45 H19         0.2234   -0.6524   -2.4288 H         1 <0>         0.1332
     46 H20         1.6448   -1.7708   -4.0957 H         1 <0>         0.1570
     47 H21         0.0704   -5.4879   -3.1270 H         1 <0>         0.1585
     48 H22        -1.3989   -4.5022   -1.4183 H         1 <0>         0.1392
@<TRIPOS>BOND
     1    1    6 ar
     2    1    2 ar
     3    1   28 1
     4    2    3 ar
     5    2   29 1
     6    3    4 ar
     7    3   27 1
     8    4    5 ar
     9    4   30 1
    10    5    6 ar
    11    5   31 1
    12    6    7 1
    13    7    8 2
    14    7   12 1
    15    8    9 1
    16    8   21 1
    17    9   11 2
    18   10   12 1
    19   11   13 1
    20   11   12 1
    21   13   19 1
    22   13   14 1
    23   13   20 1
    24   14   15 1
    25   14   32 1
    26   14   33 1
    27   15   16 1
    28   15   34 1
    29   15   35 1
    30   16   17 1
    31   16   36 1
    32   16   37 1
    33   17   18 1
    34   17   38 1
    35   17   39 1
    36   18   19 1
    37   18   40 1
    38   18   41 1
    39   19   42 1
    40   19   43 1
    41   20   44 1
    42   21   26 ar
    43   21   22 ar
    44   22   23 ar
    45   22   45 1
    46   23   24 ar
    47   23   46 1
    48   24   25 ar
    49   25   26 ar
    50   25   47 1
    51   26   48 1
@<TRIPOS>MOLECULE
CHEMBL17739
   43    46     0     0     0
SMALL
USER_CHARGES

@<TRIPOS>ATOM
      1 C1         -0.1094    1.3282   -0.5056 C.ar      1 <0>        -0.1135
      2 C2          1.0615    2.0501   -0.6578 C.ar      1 <0>        -0.0836
      3 C3          2.2845    1.4043   -0.6587 C.ar      1 <0>        -0.1129
      4 C4          2.3445    0.0328   -0.5075 C.ar      1 <0>         0.0038
      5 C5          1.1662   -0.7012   -0.3530 C.ar      1 <0>        -0.0159
      6 C6         -0.0643   -0.0419   -0.3532 C.ar      1 <0>        -0.0803
      7 C7          1.2219   -2.1691   -0.1912 C.2       1 <0>         0.1534
      8 N1          2.2786   -2.9657   -0.1601 N.2       1 <0>        -0.4637
      9 C8          2.1566   -4.2679   -0.0070 C.2       1 <0>         0.1310
     10 C9          0.8787   -4.8110    0.1246 C.2       1 <0>        -0.1534
     11 S1         -0.1196   -3.3308    0.0214 S.3       1 <0>         0.0642
     12 C10         0.4655   -6.2162    0.3053 C.ar      1 <0>         0.0581
     13 C11         1.0890   -7.0126    1.2688 C.ar      1 <0>        -0.1097
     14 C12         0.6977   -8.3251    1.4322 C.ar      1 <0>        -0.0121
     15 C13        -0.3097   -8.8534    0.6442 C.ar      1 <0>        -0.6702
     16 C14        -0.9317   -8.0703   -0.3122 C.ar      1 <0>        -0.0121
     17 C15        -0.5550   -6.7544   -0.4824 C.ar      1 <0>        -0.1234
     18 S2         -0.8022  -10.5314    0.8591 S.o2      1 <0>         2.7002
     19 O1         -1.3872  -10.9434   -0.3686 O.2       1 <0>        -0.9601
     20 O2          0.3037  -11.2079    1.4410 O.2       1 <0>        -0.9592
     21 N2         -2.0132  -10.5454    1.9886 N.pl3     1 <0>        -1.2494
     22 C16         3.3541   -5.1397    0.0243 C.ar      1 <0>        -0.0407
     23 C17         3.3576   -6.3489   -0.6707 C.ar      1 <0>        -0.0661
     24 C18         4.4750   -7.1572   -0.6384 C.ar      1 <0>        -0.1520
     25 C19         5.5927   -6.7695    0.0829 C.ar      1 <0>         0.1122
     26 C20         5.5940   -5.5693    0.7754 C.ar      1 <0>        -0.1549
     27 C21         4.4837   -4.7512    0.7442 C.ar      1 <0>        -0.0533
     28 F1          6.6847   -7.5645    0.1115 F         1 <0>        -0.1353
     29 Cl1         3.8802   -0.7767   -0.5100 Cl        1 <0>        -0.0275
     30 H1         -1.0607    1.8395   -0.5016 H         1 <0>         0.1400
     31 H2          1.0200    3.1227   -0.7767 H         1 <0>         0.1404
     32 H3          3.1945    1.9736   -0.7783 H         1 <0>         0.1431
     33 H4         -0.9791   -0.6036   -0.2342 H         1 <0>         0.1355
     34 H5          1.8758   -6.6018    1.8841 H         1 <0>         0.1386
     35 H6          1.1788   -8.9420    2.1767 H         1 <0>         0.1502
     36 H7         -1.7170   -8.4892   -0.9240 H         1 <0>         0.1503
     37 H8         -1.0446   -6.1429   -1.2258 H         1 <0>         0.1385
     38 H9         -2.3121   -9.7142    2.3894 H         1 <0>         0.4171
     39 H10        -2.4235  -11.3848    2.2493 H         1 <0>         0.4224
     40 H11         2.4867   -6.6521   -1.2329 H         1 <0>         0.1318
     41 H12         4.4785   -8.0939   -1.1760 H         1 <0>         0.1413
     42 H13         6.4673   -5.2718    1.3367 H         1 <0>         0.1403
     43 H14         4.4874   -3.8136    1.2803 H         1 <0>         0.1367
@<TRIPOS>BOND
     1    1    6 ar
     2    1    2 ar
     3    1   30 1
     4    2    3 ar
     5    2   31 1
     6    3    4 ar
     7    3   32 1
     8    4    5 ar
     9    4   29 1
    10    5    6 ar
    11    5    7 1
    12    6   33 1
    13    7   11 1
    14    7    8 2
    15    8    9 1
    16    9   10 2
    17    9   22 1
    18   10   11 1
    19   10   12 1
    20   12   17 ar
    21   12   13 ar
    22   13   14 ar
    23   13   34 1
    24   14   15 ar
    25   14   35 1
    26   15   16 ar
    27   15   18 1
    28   16   17 ar
    29   16   36 1
    30   17   37 1
    31   18   19 2
    32   18   20 2
    33   18   21 1
    34   21   38 1
    35   21   39 1
    36   22   27 ar
    37   22   23 ar
    38   23   24 ar
    39   23   40 1
    40   24   25 ar
    41   24   41 1
    42   25   26 ar
    43   25   28 1
    44   26   27 ar
    45   26   42 1
    46   27   43 1
@<TRIPOS>MOLECULE
CHEMBL18148
   43    45     0     0     0
SMALL
USER_CHARGES

@<TRIPOS>ATOM
      1 C1          3.0390   -0.5014    3.1266 C.3       1 <0>        -0.1275
      2 C2          2.5776   -0.0430    1.7417 C.3       1 <0>        -0.5960
      3 C3          3.5661   -0.5392    0.6846 C.3       1 <0>        -0.1395
      4 S1          0.9316   -0.7232    1.3970 S.o2      1 <0>         2.5319
      5 O1          0.4173   -0.1731    0.1920 O.2       1 <0>        -0.9711
      6 O2          0.9277   -2.1278    1.6117 O.2       1 <0>        -0.9174
      7 C4         -0.1025   -0.0715    2.6661 C.2       1 <0>        -0.9012
      8 C5         -0.3523    1.3213    2.7303 C.ar      1 <0>         0.1399
      9 C6          0.2023    2.2130    1.8063 C.ar      1 <0>        -0.1981
     10 C7         -0.0694    3.5475    1.9109 C.ar      1 <0>        -0.0600
     11 C8         -0.8895    4.0322    2.9229 C.ar      1 <0>        -0.2027
     12 C9         -1.4460    3.1859    3.8405 C.ar      1 <0>        -0.0232
     13 C10        -1.1870    1.8168    3.7599 C.ar      1 <0>        -0.2227
     14 C11        -1.7576    0.8640    4.7166 C.2       1 <0>         0.5681
     15 O3         -2.4815    1.2487    5.6176 O.2       1 <0>        -0.5501
     16 N1         -1.4673   -0.4468    4.5815 N.am      1 <0>        -0.5329
     17 C12        -0.6616   -0.9013    3.5744 C.2       1 <0>         0.5387
     18 O4         -0.4113   -2.2291    3.4871 O.3       1 <0>        -0.6197
     19 C13        -2.0331   -1.4063    5.5330 C.3       1 <0>         0.1436
     20 C14        -3.3610   -1.8999    5.0191 C.ar      1 <0>        -0.1109
     21 C15        -4.5229   -1.2285    5.3513 C.ar      1 <0>        -0.0703
     22 C16        -5.7412   -1.6800    4.8803 C.ar      1 <0>        -0.1648
     23 C17        -5.7977   -2.8051    4.0753 C.ar      1 <0>         0.0937
     24 C18        -4.6333   -3.4767    3.7432 C.ar      1 <0>        -0.1620
     25 C19        -3.4157   -3.0203    4.2111 C.ar      1 <0>        -0.0583
     26 F1         -6.9882   -3.2476    3.6146 F         1 <0>        -0.1460
     27 H1          3.0003   -1.5894    3.1808 H         1 <0>         0.0728
     28 H2          4.0616   -0.1653    3.2985 H         1 <0>         0.0624
     29 H3          2.3841   -0.0761    3.8870 H         1 <0>         0.0689
     30 H4          2.5336    1.0458    1.7154 H         1 <0>         0.1269
     31 H5          3.6101   -1.6280    0.7110 H         1 <0>         0.0686
     32 H6          3.2374   -0.2126   -0.3020 H         1 <0>         0.0660
     33 H7          4.5551   -0.1305    0.8918 H         1 <0>         0.0723
     34 H8          0.8414    1.8488    1.0155 H         1 <0>         0.1231
     35 H9          0.3593    4.2356    1.1975 H         1 <0>         0.1149
     36 H10        -1.0893    5.0918    2.9853 H         1 <0>         0.1141
     37 H11        -2.0820    3.5739    4.6225 H         1 <0>         0.1220
     38 H12        -1.3517   -2.2493    5.6474 H         1 <0>         0.1048
     39 H13        -2.1750   -0.9202    6.4983 H         1 <0>         0.0919
     40 H14        -4.4786   -0.3512    5.9795 H         1 <0>         0.1372
     41 H15        -6.6488   -1.1556    5.1402 H         1 <0>         0.1309
     42 H16        -4.6763   -4.3546    3.1157 H         1 <0>         0.1332
     43 H17        -2.5068   -3.5414    3.9486 H         1 <0>         0.1487
@<TRIPOS>BOND
     1    1    2 1
     2    1   27 1
     3    1   28 1
     4    1   29 1
     5    2    3 1
     6    2    4 1
     7    2   30 1
     8    3   31 1
     9    3   32 1
    10    3   33 1
    11    4    5 2
    12    4    6 2
    13    4    7 1
    14    7   17 2
    15    7    8 1
    16    8   13 ar
    17    8    9 ar
    18    9   10 ar
    19    9   34 1
    20   10   11 ar
    21   10   35 1
    22   11   12 ar
    23   11   36 1
    24   12   13 ar
    25   12   37 1
    26   13   14 1
    27   14   15 2
    28   14   16 am
    29   16   17 1
    30   16   19 1
    31   17   18 1
    32   19   20 1
    33   19   38 1
    34   19   39 1
    35   20   25 ar
    36   20   21 ar
    37   21   22 ar
    38   21   40 1
    39   22   23 ar
    40   22   41 1
    41   23   24 ar
    42   23   26 1
    43   24   25 ar
    44   24   42 1
    45   25   43 1
@<TRIPOS>MOLECULE
CHEMBL173072
   36    38     0     0     0
SMALL
USER_CHARGES

@<TRIPOS>ATOM
      1 C1         -0.5571    0.9424    0.2937 C.3       1 <0>         0.0957
      2 N1         -0.1285   -0.4565    0.2176 N.pl3     1 <0>        -0.9366
      3 C2         -0.0866   -1.1173   -0.9803 C.2       1 <0>         0.5354
      4 C3          0.8169   -2.1198   -1.2423 C.2       1 <0>        -0.4969
      5 C4          1.8284   -2.5851   -0.2739 C.ar      1 <0>         0.1793
      6 C5          2.9141   -3.3529   -0.6962 C.ar      1 <0>        -0.1707
      7 C6          3.8525   -3.7789    0.2228 C.ar      1 <0>         0.0420
      8 C7          3.7239   -3.4491    1.5616 C.ar      1 <0>        -0.1947
      9 C8          2.6484   -2.6879    1.9895 C.ar      1 <0>         0.0215
     10 C9          1.7108   -2.2611    1.0807 C.ar      1 <0>        -0.7193
     11 S1          0.3296   -1.2898    1.5855 S.o2      1 <0>         2.6927
     12 O1         -0.7214   -2.1958    1.8916 O.2       1 <0>        -0.9503
     13 O2          0.8140   -0.3296    2.5143 O.2       1 <0>        -0.9648
     14 Cl1         5.2025   -4.7350   -0.3037 Cl        1 <0>        -0.0803
     15 C10         0.7741   -2.7412   -2.5127 C.2       1 <0>         0.6476
     16 O3          0.2316   -3.8242   -2.6432 O.2       1 <0>        -0.5331
     17 N2          1.3336   -2.1350   -3.5786 N.am      1 <0>        -0.6618
     18 C11         1.2034   -2.6990   -4.8523 C.ar      1 <0>         0.1852
     19 C12         0.2025   -3.6285   -5.1029 C.ar      1 <0>        -0.1353
     20 C13         0.0766   -4.1836   -6.3613 C.ar      1 <0>        -0.0925
     21 C14         0.9460   -3.8154   -7.3718 C.ar      1 <0>        -0.1480
     22 C15         1.9440   -2.8904   -7.1266 C.ar      1 <0>        -0.0897
     23 C16         2.0719   -2.3263   -5.8712 C.ar      1 <0>        -0.0859
     24 Cl2         3.3204   -1.1594   -5.5656 Cl        1 <0>        -0.0760
     25 O4         -0.9669   -0.7715   -1.9417 O.3       1 <0>        -0.6412
     26 H1          0.3079    1.5945    0.1733 H         1 <0>         0.0629
     27 H2         -1.2781    1.1450   -0.4983 H         1 <0>         0.0925
     28 H3         -1.0202    1.1283    1.2628 H         1 <0>         0.0676
     29 H4          3.0201   -3.6136   -1.7388 H         1 <0>         0.1282
     30 H5          4.4630   -3.7862    2.2733 H         1 <0>         0.1319
     31 H6          2.5475   -2.4309    3.0336 H         1 <0>         0.1342
     32 H7          1.8265   -1.3076   -3.4626 H         1 <0>         0.4108
     33 H8         -0.4766   -3.9172   -4.3143 H         1 <0>         0.1679
     34 H9         -0.7018   -4.9064   -6.5564 H         1 <0>         0.1268
     35 H10         0.8455   -4.2517   -8.3546 H         1 <0>         0.1252
     36 H11         2.6214   -2.6050   -7.9178 H         1 <0>         0.1296
@<TRIPOS>BOND
     1    1    2 1
     2    1   26 1
     3    1   27 1
     4    1   28 1
     5    2   11 1
     6    2    3 1
     7    3    4 2
     8    3   25 1
     9    4    5 1
    10    4   15 1
    11    5   10 ar
    12    5    6 ar
    13    6    7 ar
    14    6   29 1
    15    7    8 ar
    16    7   14 1
    17    8    9 ar
    18    8   30 1
    19    9   10 ar
    20    9   31 1
    21   10   11 1
    22   11   12 2
    23   11   13 2
    24   15   16 2
    25   15   17 am
    26   17   18 1
    27   17   32 1
    28   18   23 ar
    29   18   19 ar
    30   19   20 ar
    31   19   33 1
    32   20   21 ar
    33   20   34 1
    34   21   22 ar
    35   21   35 1
    36   22   23 ar
    37   22   36 1
    38   23   24 1
@<TRIPOS>MOLECULE
CHEMBL178355
   42    44     0     0     0
SMALL
USER_CHARGES

@<TRIPOS>ATOM
      1 C1         -1.3992    0.1879   -0.2553 C.3       1 <0>        -0.6504
      2 S1         -0.8951   -1.5393   -0.4859 S.o2      1 <0>         2.4993
      3 O1         -0.1190   -1.9747    0.6220 O.2       1 <0>        -0.9367
      4 O2         -1.9939   -2.3122   -0.9490 O.2       1 <0>        -0.9368
      5 C2          0.2327   -1.5051   -1.8392 C.ar      1 <0>        -0.6596
      6 C3         -0.2382   -1.6500   -3.1321 C.ar      1 <0>        -0.0218
      7 C4          0.6395   -1.6236   -4.1961 C.ar      1 <0>        -0.1267
      8 C5          2.0050   -1.4503   -3.9662 C.ar      1 <0>         0.0138
      9 C6          2.4735   -1.3048   -2.6598 C.ar      1 <0>        -0.1222
     10 C7          1.5847   -1.3277   -1.6048 C.ar      1 <0>        -0.0218
     11 C8          2.9522   -1.4216   -5.1028 C.2       1 <0>        -0.0580
     12 C9          2.8878   -0.4197   -6.0134 C.2       1 <0>        -0.0744
     13 C10         3.7207   -0.4721   -7.2244 C.ar      1 <0>        -0.0641
     14 C11         3.9215   -1.6872   -7.8876 C.ar      1 <0>        -0.0948
     15 C12         4.7034   -1.7278   -9.0226 C.ar      1 <0>        -0.1207
     16 C13         5.2891   -0.5706   -9.5057 C.ar      1 <0>        -0.1131
     17 C14         5.0953    0.6356   -8.8552 C.ar      1 <0>        -0.1224
     18 C15         4.3115    0.6940   -7.7223 C.ar      1 <0>        -0.1051
     19 C16         3.9697   -2.4866   -5.2451 C.ar      1 <0>        -0.0410
     20 C17         3.5752   -3.8122   -5.4311 C.ar      1 <0>        -0.1107
     21 C18         4.5288   -4.8004   -5.5631 C.ar      1 <0>        -0.1170
     22 C19         5.8736   -4.4795   -5.5114 C.ar      1 <0>        -0.1157
     23 C20         6.2713   -3.1672   -5.3272 C.ar      1 <0>        -0.1157
     24 C21         5.3277   -2.1688   -5.1996 C.ar      1 <0>        -0.0967
     25 H1         -0.5221    0.7959   -0.0339 H         1 <0>         0.1315
     26 H2         -1.8736    0.5527   -1.1664 H         1 <0>         0.1316
     27 H3         -2.1049    0.2530    0.5729 H         1 <0>         0.1337
     28 H4         -1.2952   -1.7843   -3.3087 H         1 <0>         0.1448
     29 H5          0.2708   -1.7372   -5.2049 H         1 <0>         0.1354
     30 H6          3.5291   -1.1704   -2.4752 H         1 <0>         0.1339
     31 H7          1.9455   -1.2110   -0.5936 H         1 <0>         0.1443
     32 H8          2.2248    0.4170   -5.8498 H         1 <0>         0.1306
     33 H9          3.4657   -2.5912   -7.5115 H         1 <0>         0.1258
     34 H10         4.8594   -2.6652   -9.5358 H         1 <0>         0.1217
     35 H11         5.9011   -0.6091  -10.3947 H         1 <0>         0.1216
     36 H12         5.5561    1.5342   -9.2382 H         1 <0>         0.1233
     37 H13         4.1577    1.6367   -7.2183 H         1 <0>         0.1233
     38 H14         2.5257   -4.0639   -5.4714 H         1 <0>         0.1216
     39 H15         4.2248   -5.8268   -5.7068 H         1 <0>         0.1238
     40 H16         6.6162   -5.2569   -5.6149 H         1 <0>         0.1223
     41 H17         7.3226   -2.9232   -5.2877 H         1 <0>         0.1230
     42 H18         5.6394   -1.1441   -5.0607 H         1 <0>         0.1203
@<TRIPOS>BOND
     1    1    2 1
     2    1   25 1
     3    1   26 1
     4    1   27 1
     5    2    3 2
     6    2    4 2
     7    2    5 1
     8    5   10 ar
     9    5    6 ar
    10    6    7 ar
    11    6   28 1
    12    7    8 ar
    13    7   29 1
    14    8    9 ar
    15    8   11 1
    16    9   10 ar
    17    9   30 1
    18   10   31 1
    19   11   12 2
    20   11   19 1
    21   12   13 1
    22   12   32 1
    23   13   18 ar
    24   13   14 ar
    25   14   15 ar
    26   14   33 1
    27   15   16 ar
    28   15   34 1
    29   16   17 ar
    30   16   35 1
    31   17   18 ar
    32   17   36 1
    33   18   37 1
    34   19   24 ar
    35   19   20 ar
    36   20   21 ar
    37   20   38 1
    38   21   22 ar
    39   21   39 1
    40   22   23 ar
    41   22   40 1
    42   23   24 ar
    43   23   41 1
    44   24   42 1
@<TRIPOS>MOLECULE
CHEMBL317434
   30    31     0     0     0
SMALL
USER_CHARGES

@<TRIPOS>ATOM
      1 C1         -0.0187    1.5258    0.0104 C.3       1 <0>        -0.1177
      2 C2          0.0021   -0.0041    0.0020 C.3       1 <0>        -0.1367
      3 C3          0.7074   -0.4901   -1.2379 C.ar      1 <0>        -0.0161
      4 C4          0.2195   -0.1494   -2.4865 C.ar      1 <0>        -0.0809
      5 C5          0.8615   -0.5918   -3.6254 C.ar      1 <0>        -0.1086
      6 C6          2.0033   -1.3829   -3.5156 C.ar      1 <0>        -0.0816
      7 C7          2.4904   -1.7230   -2.2553 C.ar      1 <0>        -0.1100
      8 C8          1.8437   -1.2704   -1.1231 C.ar      1 <0>        -0.1304
      9 C9          2.6975   -1.8618   -4.7365 C.ar      1 <0>        -0.0207
     10 C10         2.2134   -1.5173   -5.9968 C.ar      1 <0>        -0.1188
     11 C11         2.8634   -1.9652   -7.1290 C.ar      1 <0>        -0.1173
     12 C12         3.9931   -2.7550   -7.0142 C.ar      1 <0>        -0.1340
     13 C13         4.4778   -3.1004   -5.7656 C.ar      1 <0>        -0.1181
     14 C14         3.8393   -2.6529   -4.6267 C.ar      1 <0>        -0.1201
     15 C15        -1.4117   -0.5257    0.0127 C.2       1 <0>         0.5003
     16 O1         -1.8097   -1.2271   -0.9017 O.co2     1 <0>        -0.6857
     17 O2         -2.1576   -0.2463    0.9358 O.co2     1 <0>        -0.6979
     18 H1          1.0039    1.9031    0.0027 H         1 <0>         0.0404
     19 H2         -0.5459    1.8868   -0.8726 H         1 <0>         0.0477
     20 H3         -0.5289    1.8773    0.9072 H         1 <0>         0.0601
     21 H4          0.5293   -0.3651    0.8851 H         1 <0>         0.0709
     22 H5         -0.6658    0.4635   -2.5704 H         1 <0>         0.1201
     23 H6          0.4794   -0.3255   -4.5998 H         1 <0>         0.1171
     24 H7          3.3748   -2.3362   -2.1645 H         1 <0>         0.1162
     25 H8          2.2232   -1.5295   -0.1457 H         1 <0>         0.1161
     26 H9          1.3310   -0.9013   -6.0876 H         1 <0>         0.1251
     27 H10         2.4890   -1.6987   -8.1064 H         1 <0>         0.1200
     28 H11         4.4984   -3.1035   -7.9028 H         1 <0>         0.1174
     29 H12         5.3600   -3.7176   -5.6817 H         1 <0>         0.1194
     30 H13         4.2211   -2.9195   -3.6523 H         1 <0>         0.1238
@<TRIPOS>BOND
     1    1    2 1
     2    1   18 1
     3    1   19 1
     4    1   20 1
     5    2    3 1
     6    2   15 1
     7    2   21 1
     8    3    8 ar
     9    3    4 ar
    10    4    5 ar
    11    4   22 1
    12    5    6 ar
    13    5   23 1
    14    6    7 ar
    15    6    9 1
    16    7    8 ar
    17    7   24 1
    18    8   25 1
    19    9   14 ar
    20    9   10 ar
    21   10   11 ar
    22   10   26 1
    23   11   12 ar
    24   11   27 1
    25   12   13 ar
    26   12   28 1
    27   13   14 ar
    28   13   29 1
    29   14   30 1
    30   15   16 2
    31   15   17 1
@<TRIPOS>MOLECULE
CHEMBL317434__1
   30    31     0     0     0
SMALL
USER_CHARGES

@<TRIPOS>ATOM
      1 C1         -0.0187    1.5258    0.0104 C.3       1 <0>        -0.1166
      2 C2          0.0021   -0.0041    0.0020 C.3       1 <0>        -0.1342
      3 C3         -1.4117   -0.5257    0.0127 C.ar      1 <0>        -0.0277
      4 C4         -2.2739   -0.2006   -1.0189 C.ar      1 <0>        -0.1048
      5 C5         -3.5698   -0.6756   -1.0142 C.ar      1 <0>        -0.1073
      6 C6         -4.0090   -1.4839    0.0324 C.ar      1 <0>        -0.0803
      7 C7         -3.1362   -1.8082    1.0690 C.ar      1 <0>        -0.1091
      8 C8         -1.8407   -1.3324    1.0512 C.ar      1 <0>        -0.1247
      9 C9         -5.4013   -1.9972    0.0431 C.ar      1 <0>        -0.0231
     10 C10        -6.2725   -1.6772   -0.9962 C.ar      1 <0>        -0.1181
     11 C11        -7.5662   -2.1577   -0.9813 C.ar      1 <0>        -0.1172
     12 C12        -7.9986   -2.9551    0.0630 C.ar      1 <0>        -0.1327
     13 C13        -7.1382   -3.2754    1.0975 C.ar      1 <0>        -0.1181
     14 C14        -5.8404   -2.8055    1.0897 C.ar      1 <0>        -0.1190
     15 C15         0.7074   -0.4901   -1.2379 C.2       1 <0>         0.5042
     16 O1          1.4615   -1.4461   -1.1751 O.co2     1 <0>        -0.6967
     17 O2          0.5241    0.0728   -2.3037 O.co2     1 <0>        -0.6893
     18 H1          1.0039    1.9031    0.0027 H         1 <0>         0.0485
     19 H2         -0.5459    1.8868   -0.8726 H         1 <0>         0.0605
     20 H3         -0.5289    1.8773    0.9072 H         1 <0>         0.0371
     21 H4          0.5293   -0.3651    0.8851 H         1 <0>         0.0687
     22 H5         -1.9326    0.4263   -1.8294 H         1 <0>         0.1347
     23 H6         -4.2423   -0.4209   -1.8200 H         1 <0>         0.1193
     24 H7         -3.4715   -2.4341    1.8827 H         1 <0>         0.1183
     25 H8         -1.1620   -1.5870    1.8518 H         1 <0>         0.1198
     26 H9         -5.9361   -1.0541   -1.8116 H         1 <0>         0.1254
     27 H10        -8.2424   -1.9103   -1.7863 H         1 <0>         0.1205
     28 H11        -9.0120   -3.3286    0.0708 H         1 <0>         0.1179
     29 H12        -7.4811   -3.8981    1.9106 H         1 <0>         0.1200
     30 H13        -5.1681   -3.0599    1.8956 H         1 <0>         0.1242
@<TRIPOS>BOND
     1    1    2 1
     2    1   18 1
     3    1   19 1
     4    1   20 1
     5    2    3 1
     6    2   15 1
     7    2   21 1
     8    3    8 ar
     9    3    4 ar
    10    4    5 ar
    11    4   22 1
    12    5    6 ar
    13    5   23 1
    14    6    7 ar
    15    6    9 1
    16    7    8 ar
    17    7   24 1
    18    8   25 1
    19    9   14 ar
    20    9   10 ar
    21   10   11 ar
    22   10   26 1
    23   11   12 ar
    24   11   27 1
    25   12   13 ar
    26   12   28 1
    27   13   14 ar
    28   13   29 1
    29   14   30 1
    30   15   16 2
    31   15   17 1
@<TRIPOS>MOLECULE
CHEMBL283267
   41    43     0     0     0
SMALL
USER_CHARGES

@<TRIPOS>ATOM
      1 C1         -0.0259    1.3216   -0.7170 C.ar      1 <0>        -0.1191
      2 C2          1.1479    2.0439   -0.5979 C.ar      1 <0>        -0.1213
      3 C3          2.3576    1.3878   -0.4948 C.ar      1 <0>        -0.1086
      4 C4          2.3951   -0.0058   -0.5109 C.ar      1 <0>        -0.0483
      5 C5          1.2089   -0.7284   -0.6312 C.ar      1 <0>        -0.1050
      6 C6          0.0052   -0.0613   -0.7336 C.ar      1 <0>        -0.1181
      7 C7          3.6915   -0.7166   -0.4011 C.ar      1 <0>        -0.0181
      8 C8          4.8763    0.0098   -0.2756 C.ar      1 <0>        -0.1310
      9 C9          6.0805   -0.6487   -0.1735 C.ar      1 <0>        -0.0620
     10 C10         6.1163   -2.0460   -0.1956 C.ar      1 <0>        -0.1688
     11 C11         4.9286   -2.7724   -0.3214 C.ar      1 <0>        -0.0450
     12 C12         3.7253   -2.1115   -0.4175 C.ar      1 <0>        -0.1213
     13 C13         7.4076   -2.7539   -0.0867 C.2       1 <0>         0.4584
     14 O1          8.4478   -2.1237   -0.0775 O.2       1 <0>        -0.4540
     15 C14         7.4360   -4.2237    0.0109 C.ar      1 <0>        -0.2427
     16 C15         7.8042   -4.9956   -1.0955 C.ar      1 <0>        -0.0582
     17 C16         7.8286   -6.3689   -0.9974 C.ar      1 <0>        -0.1775
     18 C17         7.4896   -6.9927    0.1937 C.ar      1 <0>        -0.0605
     19 C18         7.1236   -6.2459    1.2944 C.ar      1 <0>        -0.0948
     20 C19         7.0988   -4.8588    1.2177 C.ar      1 <0>         0.2647
     21 N1          6.7369   -4.1049    2.3258 N.pl3     1 <0>        -0.8632
     22 C20         6.7564   -6.9352    2.5833 C.3       1 <0>        -0.1516
     23 C21         5.2610   -7.1080    2.6521 C.2       1 <0>         0.4956
     24 O2          4.5584   -6.7085    1.7393 O.co2     1 <0>        -0.6823
     25 O3          4.7536   -7.6474    3.6207 O.co2     1 <0>        -0.7048
     26 H1         -0.9707    1.8393   -0.7928 H         1 <0>         0.1215
     27 H2          1.1176    3.1234   -0.5859 H         1 <0>         0.1230
     28 H3          3.2734    1.9527   -0.4023 H         1 <0>         0.1258
     29 H4          1.2320   -1.8080   -0.6446 H         1 <0>         0.1299
     30 H5         -0.9144   -0.6200   -0.8265 H         1 <0>         0.1251
     31 H6          4.8484    1.0893   -0.2589 H         1 <0>         0.1287
     32 H7          6.9973   -0.0863   -0.0767 H         1 <0>         0.1333
     33 H8          4.9550   -3.8520   -0.3389 H         1 <0>         0.1444
     34 H9          2.8072   -2.6725   -0.5103 H         1 <0>         0.1328
     35 H10         8.0688   -4.5152   -2.0259 H         1 <0>         0.1148
     36 H11         8.1129   -6.9634   -1.8531 H         1 <0>         0.1165
     37 H12         7.5120   -8.0704    0.2600 H         1 <0>         0.1170
     38 H13         6.6471   -3.1421    2.2490 H         1 <0>         0.3891
     39 H14         6.5739   -4.5409    3.1768 H         1 <0>         0.4038
     40 H15         7.2373   -7.9126    2.6224 H         1 <0>         0.0703
     41 H16         7.0916   -6.3314    3.4265 H         1 <0>         0.0615
@<TRIPOS>BOND
     1    1    6 ar
     2    1    2 ar
     3    1   26 1
     4    2    3 ar
     5    2   27 1
     6    3    4 ar
     7    3   28 1
     8    4    5 ar
     9    4    7 1
    10    5    6 ar
    11    5   29 1
    12    6   30 1
    13    7   12 ar
    14    7    8 ar
    15    8    9 ar
    16    8   31 1
    17    9   10 ar
    18    9   32 1
    19   10   11 ar
    20   10   13 1
    21   11   12 ar
    22   11   33 1
    23   12   34 1
    24   13   14 2
    25   13   15 1
    26   15   20 ar
    27   15   16 ar
    28   16   17 ar
    29   16   35 1
    30   17   18 ar
    31   17   36 1
    32   18   19 ar
    33   18   37 1
    34   19   20 ar
    35   19   22 1
    36   20   21 1
    37   21   38 1
    38   21   39 1
    39   22   23 1
    40   22   40 1
    41   22   41 1
    42   23   24 2
    43   23   25 1
@<TRIPOS>MOLECULE
CHEMBL184374
   41    42     0     0     0
SMALL
USER_CHARGES

@<TRIPOS>ATOM
      1 C1         -0.2341    1.2175    0.1510 C.3       1 <0>        -0.1566
      2 C2         -0.0852   -0.3012    0.0395 C.3       1 <0>        -0.0990
      3 C3          0.5594   -0.6473   -1.2780 C.2       1 <0>        -0.0878
      4 C4          1.8788   -0.8877   -1.3371 C.2       1 <0>        -0.0944
      5 C5          2.6725   -0.9514   -0.0968 C.ar      1 <0>        -0.0667
      6 C6          2.4631   -0.0156    0.9196 C.ar      1 <0>        -0.1187
      7 C7          3.2093   -0.0818    2.0776 C.ar      1 <0>        -0.1239
      8 C8          4.1638   -1.0714    2.2341 C.ar      1 <0>        -0.0819
      9 C9          4.3767   -2.0015    1.2319 C.ar      1 <0>        -0.1216
     10 C10         3.6341   -1.9514    0.0707 C.ar      1 <0>        -0.1012
     11 C11         4.9757   -1.1362    3.5020 C.3       1 <0>        -0.1183
     12 C12        -0.2588   -0.7218   -2.5017 C.ar      1 <0>         0.0120
     13 C13        -0.8745    0.4270   -3.0056 C.ar      1 <0>        -0.1297
     14 C14        -1.6386    0.3496   -4.1511 C.ar      1 <0>        -0.0221
     15 C15        -1.7964   -0.8617   -4.8012 C.ar      1 <0>        -0.6618
     16 C16        -1.1902   -2.0036   -4.3078 C.ar      1 <0>        -0.0212
     17 C17        -0.4179   -1.9404   -3.1667 C.ar      1 <0>        -0.1283
     18 S1         -2.7746   -0.9508   -6.2640 S.o2      1 <0>         2.4999
     19 O1         -3.2337   -2.2948   -6.3120 O.2       1 <0>        -0.9372
     20 O2         -3.6953    0.1256   -6.1506 O.2       1 <0>        -0.9372
     21 C18        -1.6126   -0.6386   -7.6215 C.3       1 <0>        -0.6504
     22 H1          0.7203    1.6936   -0.0738 H         1 <0>         0.0629
     23 H2         -0.9876    1.5617   -0.5574 H         1 <0>         0.0615
     24 H3         -0.5410    1.4791    1.1637 H         1 <0>         0.0644
     25 H4          0.5381   -0.6661    0.8559 H         1 <0>         0.0905
     26 H5         -1.0686   -0.7678    0.0966 H         1 <0>         0.0709
     27 H6          2.3586   -1.0345   -2.2935 H         1 <0>         0.1239
     28 H7          1.7190    0.7577    0.7985 H         1 <0>         0.1409
     29 H8          3.0486    0.6408    2.8640 H         1 <0>         0.1230
     30 H9          5.1236   -2.7709    1.3608 H         1 <0>         0.1234
     31 H10         3.7982   -2.6807   -0.7087 H         1 <0>         0.1236
     32 H11         4.4644   -1.7672    4.2290 H         1 <0>         0.0718
     33 H12         5.9577   -1.5560    3.2836 H         1 <0>         0.0671
     34 H13         5.0923   -0.1324    3.9105 H         1 <0>         0.0671
     35 H14        -0.7525    1.3730   -2.4991 H         1 <0>         0.1359
     36 H15        -2.1154    1.2366   -4.5416 H         1 <0>         0.1439
     37 H16        -1.3180   -2.9457   -4.8202 H         1 <0>         0.1442
     38 H17         0.0589   -2.8313   -2.7857 H         1 <0>         0.1348
     39 H18        -0.8308   -1.3981   -7.6124 H         1 <0>         0.1314
     40 H19        -2.1453   -0.6769   -8.5717 H         1 <0>         0.1335
     41 H20        -1.1636    0.3466   -7.4961 H         1 <0>         0.1314
@<TRIPOS>BOND
     1    1    2 1
     2    1   22 1
     3    1   23 1
     4    1   24 1
     5    2    3 1
     6    2   25 1
     7    2   26 1
     8    3    4 2
     9    3   12 1
    10    4    5 1
    11    4   27 1
    12    5   10 ar
    13    5    6 ar
    14    6    7 ar
    15    6   28 1
    16    7    8 ar
    17    7   29 1
    18    8    9 ar
    19    8   11 1
    20    9   10 ar
    21    9   30 1
    22   10   31 1
    23   11   32 1
    24   11   33 1
    25   11   34 1
    26   12   17 ar
    27   12   13 ar
    28   13   14 ar
    29   13   35 1
    30   14   15 ar
    31   14   36 1
    32   15   16 ar
    33   15   18 1
    34   16   17 ar
    35   16   37 1
    36   17   38 1
    37   18   19 2
    38   18   20 2
    39   18   21 1
    40   21   39 1
    41   21   40 1
    42   21   41 1
@<TRIPOS>MOLECULE
CHEMBL314337
   79    83     0     0     0
SMALL
USER_CHARGES

@<TRIPOS>ATOM
      1 C1          0.0355    0.3598    0.4967 C.3       1 <0>        -0.1528
      2 C2          0.3364   -1.1291    0.3133 C.3       1 <0>        -0.0553
      3 C3          1.2628   -1.6040    1.4345 C.3       1 <0>        -0.1545
      4 C4         -0.9706   -1.9231    0.3609 C.3       1 <0>        -0.1401
      5 C5          1.0178   -1.3490   -1.0388 C.3       1 <0>        -0.1500
      6 C6          2.3051   -0.5669   -1.0857 C.2       1 <0>         0.4179
      7 O1          2.6445    0.1014   -0.1306 O.2       1 <0>        -0.4466
      8 C7          3.1194   -0.6114   -2.2445 C.2       1 <0>        -0.2907
      9 C8          2.8528   -1.3630   -3.4868 C.ar      1 <0>        -0.0187
     10 C9          1.8223   -2.1985   -3.9078 C.ar      1 <0>        -0.1218
     11 C10         1.8723   -2.7634   -5.1687 C.ar      1 <0>         0.1133
     12 C11         2.9472   -2.4977   -6.0115 C.ar      1 <0>        -0.1931
     13 C12         3.9712   -1.6724   -5.6024 C.ar      1 <0>        -0.0749
     14 C13         3.9366   -1.0952   -4.3368 C.ar      1 <0>         0.0542
     15 N1          4.7959   -0.2469   -3.6648 N.pl3     1 <0>        -0.4534
     16 C14         4.3170    0.0434   -2.4406 C.2       1 <0>         0.2270
     17 C15         4.9891    0.9436   -1.4362 C.3       1 <0>        -0.0468
     18 C16         5.9316    0.1160   -0.5600 C.3       1 <0>        -0.1187
     19 C17         5.1509   -1.0284    0.0895 C.3       1 <0>        -0.1224
     20 C18         7.0566   -0.4592   -1.4228 C.3       1 <0>        -0.1308
     21 C19         6.5209    0.9947    0.5132 C.2       1 <0>         0.5092
     22 O2          6.2153    2.1735    0.5719 O.co2     1 <0>        -0.6937
     23 O3          7.3032    0.5267    1.3229 O.co2     1 <0>        -0.6944
     24 C20         6.0524    0.2707   -4.2121 C.3       1 <0>         0.1267
     25 C21         5.7718    1.4980   -5.0403 C.ar      1 <0>        -0.1082
     26 C22         5.3975    1.3672   -6.3646 C.ar      1 <0>        -0.0874
     27 C23         5.1400    2.4925   -7.1247 C.ar      1 <0>        -0.1137
     28 C24         5.2569    3.7500   -6.5599 C.ar      1 <0>        -0.0263
     29 C25         5.6316    3.8804   -5.2345 C.ar      1 <0>        -0.1074
     30 C26         5.8833    2.7541   -4.4738 C.ar      1 <0>        -0.0823
     31 Cl1         4.9343    5.1639   -7.5141 Cl        1 <0>        -0.0719
     32 O4          0.8691   -3.5809   -5.5860 O.3       1 <0>        -0.3130
     33 C27         0.9842   -4.1306   -6.9000 C.3       1 <0>         0.1122
     34 C28        -0.2102   -5.0040   -7.1856 C.ar      1 <0>         0.1641
     35 C29        -1.1955   -5.1454   -6.2107 C.ar      1 <0>        -0.1508
     36 C30        -2.2850   -5.9329   -6.4520 C.ar      1 <0>        -0.0574
     37 C31        -2.3720   -6.5826   -7.6978 C.ar      1 <0>        -0.1043
     38 C32        -3.4624   -7.4076   -8.0175 C.ar      1 <0>        -0.0948
     39 C33        -3.5102   -8.0183   -9.2333 C.ar      1 <0>        -0.1183
     40 C34        -2.4907   -7.8357  -10.1658 C.ar      1 <0>        -0.1017
     41 C35        -1.4195   -7.0436   -9.8889 C.ar      1 <0>        -0.0929
     42 C36        -1.3343   -6.3954   -8.6442 C.ar      1 <0>         0.1322
     43 N2         -0.2971   -5.6064   -8.3466 N.ar      1 <0>        -0.4725
     44 H1          0.9666    0.9255    0.4627 H         1 <0>         0.0847
     45 H2         -0.6245    0.6982   -0.3021 H         1 <0>         0.0427
     46 H3         -0.4499    0.5165    1.4599 H         1 <0>         0.0473
     47 H4          0.7774   -1.4473    2.3978 H         1 <0>         0.0472
     48 H5          1.4771   -2.6647    1.3039 H         1 <0>         0.0440
     49 H6          2.1939   -1.0383    1.4006 H         1 <0>         0.0866
     50 H7         -1.6306   -1.5847   -0.4379 H         1 <0>         0.0508
     51 H8         -0.7562   -2.9838    0.2303 H         1 <0>         0.0515
     52 H9         -1.4560   -1.7664    1.3242 H         1 <0>         0.0530
     53 H10         1.2321   -2.4097   -1.1694 H         1 <0>         0.0888
     54 H11         0.3578   -1.0106   -1.8376 H         1 <0>         0.0881
     55 H12         0.9885   -2.4047   -3.2531 H         1 <0>         0.1345
     56 H13         2.9790   -2.9428   -6.9950 H         1 <0>         0.1302
     57 H14         4.8012   -1.4733   -6.2641 H         1 <0>         0.1208
     58 H15         5.5597    1.7104   -1.9601 H         1 <0>         0.0682
     59 H16         4.2332    1.4175   -0.8099 H         1 <0>         0.1165
     60 H17         4.6500   -1.6112   -0.6836 H         1 <0>         0.0377
     61 H18         5.8383   -1.6704    0.6404 H         1 <0>         0.0458
     62 H19         4.4083   -0.6189    0.7743 H         1 <0>         0.0664
     63 H20         7.6608    0.3553   -1.8223 H         1 <0>         0.0450
     64 H21         7.6830   -1.1121   -0.8151 H         1 <0>         0.0612
     65 H22         6.6273   -1.0307   -2.2458 H         1 <0>         0.0370
     66 H23         6.7252    0.5300   -3.3946 H         1 <0>         0.1213
     67 H24         6.5175   -0.4912   -4.8376 H         1 <0>         0.0999
     68 H25         5.3066    0.3855   -6.8055 H         1 <0>         0.1301
     69 H26         4.8480    2.3901   -8.1594 H         1 <0>         0.1336
     70 H27         5.7233    4.8618   -4.7931 H         1 <0>         0.1381
     71 H28         6.1711    2.8556   -3.4378 H         1 <0>         0.1418
     72 H29         1.0259   -3.3220   -7.6297 H         1 <0>         0.0875
     73 H30         1.8944   -4.7267   -6.9659 H         1 <0>         0.0878
     74 H31        -1.0977   -4.6330   -5.2650 H         1 <0>         0.1506
     75 H32        -3.0581   -6.0540   -5.7077 H         1 <0>         0.1421
     76 H33        -4.2584   -7.5570   -7.3030 H         1 <0>         0.1307
     77 H34        -4.3491   -8.6529   -9.4783 H         1 <0>         0.1276
     78 H35        -2.5517   -8.3311  -11.1235 H         1 <0>         0.1300
     79 H36        -0.6377   -6.9133  -10.6225 H         1 <0>         0.1357
@<TRIPOS>BOND
     1    1    2 1
     2    1   44 1
     3    1   45 1
     4    1   46 1
     5    2    3 1
     6    2    4 1
     7    2    5 1
     8    3   47 1
     9    3   48 1
    10    3   49 1
    11    4   50 1
    12    4   51 1
    13    4   52 1
    14    5    6 1
    15    5   53 1
    16    5   54 1
    17    6    7 2
    18    6    8 1
    19    8   16 2
    20    8    9 1
    21    9   14 ar
    22    9   10 ar
    23   10   11 ar
    24   10   55 1
    25   11   12 ar
    26   11   32 1
    27   12   13 ar
    28   12   56 1
    29   13   14 ar
    30   13   57 1
    31   14   15 1
    32   15   16 1
    33   15   24 1
    34   16   17 1
    35   17   18 1
    36   17   58 1
    37   17   59 1
    38   18   19 1
    39   18   20 1
    40   18   21 1
    41   19   60 1
    42   19   61 1
    43   19   62 1
    44   20   63 1
    45   20   64 1
    46   20   65 1
    47   21   22 2
    48   21   23 1
    49   24   25 1
    50   24   66 1
    51   24   67 1
    52   25   30 ar
    53   25   26 ar
    54   26   27 ar
    55   26   68 1
    56   27   28 ar
    57   27   69 1
    58   28   29 ar
    59   28   31 1
    60   29   30 ar
    61   29   70 1
    62   30   71 1
    63   32   33 1
    64   33   34 1
    65   33   72 1
    66   33   73 1
    67   34   43 ar
    68   34   35 ar
    69   35   36 ar
    70   35   74 1
    71   36   37 ar
    72   36   75 1
    73   37   42 ar
    74   37   38 ar
    75   38   39 ar
    76   38   76 1
    77   39   40 ar
    78   39   77 1
    79   40   41 ar
    80   40   78 1
    81   41   42 ar
    82   41   79 1
    83   42   43 ar
@<TRIPOS>MOLECULE
CHEMBL139
   29    30     0     0     0
SMALL
USER_CHARGES

@<TRIPOS>ATOM
      1 C1         -0.1806    1.0357    0.2000 C.ar      1 <0>        -0.1222
      2 C2          0.9245    1.8481    0.0217 C.ar      1 <0>        -0.1361
      3 C3          2.1862    1.2928   -0.0570 C.ar      1 <0>        -0.1180
      4 C4          2.3450   -0.0840    0.0433 C.ar      1 <0>         0.1573
      5 C5          1.2329   -0.8970    0.2224 C.ar      1 <0>        -0.0156
      6 C6         -0.0262   -0.3347    0.3002 C.ar      1 <0>        -0.1119
      7 C7          1.4001   -2.3907    0.3312 C.3       1 <0>        -0.1565
      8 C8          1.7182   -2.7580    1.7577 C.2       1 <0>         0.5052
      9 O1          1.8014   -1.8875    2.6073 O.co2     1 <0>        -0.6883
     10 O2          1.8923   -3.9257    2.0622 O.co2     1 <0>        -0.7010
     11 N1          3.6199   -0.6493   -0.0363 N.pl3     1 <0>        -0.6799
     12 C9          3.9705   -1.4310   -1.1417 C.ar      1 <0>         0.2371
     13 C10         3.3529   -1.2194   -2.3686 C.ar      1 <0>        -0.0923
     14 C11         3.7019   -1.9940   -3.4588 C.ar      1 <0>        -0.0712
     15 C12         4.6640   -2.9789   -3.3298 C.ar      1 <0>        -0.1540
     16 C13         5.2803   -3.1928   -2.1105 C.ar      1 <0>        -0.0674
     17 C14         4.9413   -2.4177   -1.0174 C.ar      1 <0>        -0.0897
     18 Cl1         5.7217   -2.6815    0.5107 Cl        1 <0>        -0.0512
     19 Cl2         2.1442    0.0160   -2.5315 Cl        1 <0>        -0.0473
     20 H1         -1.1659    1.4731    0.2657 H         1 <0>         0.1132
     21 H2          0.8003    2.9181   -0.0565 H         1 <0>         0.1137
     22 H3          3.0486    1.9277   -0.1966 H         1 <0>         0.1147
     23 H4         -0.8913   -0.9662    0.4394 H         1 <0>         0.1149
     24 H5          0.4765   -2.8828    0.0266 H         1 <0>         0.0630
     25 H6          2.2146   -2.7133   -0.3173 H         1 <0>         0.0663
     26 H7          4.2621   -0.4997    0.6751 H         1 <0>         0.4125
     27 H8          3.2224   -1.8301   -4.4125 H         1 <0>         0.1341
     28 H9          4.9344   -3.5828   -4.1833 H         1 <0>         0.1345
     29 H10         6.0307   -3.9634   -2.0133 H         1 <0>         0.1361
@<TRIPOS>BOND
     1    1    6 ar
     2    1    2 ar
     3    1   20 1
     4    2    3 ar
     5    2   21 1
     6    3    4 ar
     7    3   22 1
     8    4    5 ar
     9    4   11 1
    10    5    6 ar
    11    5    7 1
    12    6   23 1
    13    7    8 1
    14    7   24 1
    15    7   25 1
    16    8    9 2
    17    8   10 1
    18   11   12 1
    19   11   26 1
    20   12   17 ar
    21   12   13 ar
    22   13   14 ar
    23   13   19 1
    24   14   15 ar
    25   14   27 1
    26   15   16 ar
    27   15   28 1
    28   16   17 ar
    29   16   29 1
    30   17   18 1
@<TRIPOS>MOLECULE
CHEMBL8968
   29    31     0     0     0
SMALL
USER_CHARGES

@<TRIPOS>ATOM
      1 C1         -0.0184    1.5028    0.0103 C.3       1 <0>        -0.1182
      2 C2          0.0021   -0.0041    0.0020 C.ar      1 <0>        -0.0623
      3 C3          0.0057   -0.6889   -1.1977 C.ar      1 <0>        -0.1122
      4 C4          0.0240   -2.0713   -1.2061 C.ar      1 <0>        -0.0974
      5 C5          0.0391   -2.7727   -0.0143 C.ar      1 <0>        -0.1154
      6 C6          0.0360   -2.0937    1.1883 C.ar      1 <0>        -0.0931
      7 C7          0.0230   -0.7052    1.1999 C.ar      1 <0>         0.1105
      8 N1          0.0252   -0.0132    2.4186 N.am      1 <0>        -0.5313
      9 C8         -1.0826    0.3425    3.0939 C.2       1 <0>         0.5739
     10 O1         -2.2254    0.1187    2.7492 O.2       1 <0>        -0.4499
     11 C9         -0.6761    1.0514    4.3256 C.ar      1 <0>        -0.1392
     12 C10        -1.3631    1.6329    5.3790 C.ar      1 <0>        -0.0426
     13 C11        -0.6587    2.2357    6.4095 C.ar      1 <0>        -0.0933
     14 C12         0.7232    2.2609    6.3927 C.ar      1 <0>        -0.0932
     15 C13         1.4240    1.6837    5.3452 C.ar      1 <0>        -0.0426
     16 C14         0.7333    1.0767    4.3087 C.ar      1 <0>        -0.1387
     17 C15         1.1354    0.3777    3.0700 C.2       1 <0>         0.5748
     18 O2          2.2770    0.1901    2.7006 O.2       1 <0>        -0.4501
     19 H1          1.0042    1.8801    0.0026 H         1 <0>         0.0774
     20 H2         -0.5455    1.8639   -0.8728 H         1 <0>         0.0777
     21 H3         -0.5286    1.8543    0.9071 H         1 <0>         0.0593
     22 H4         -0.0060   -0.1439   -2.1300 H         1 <0>         0.1338
     23 H5          0.0261   -2.6045   -2.1453 H         1 <0>         0.1324
     24 H6          0.0529   -3.8526   -0.0240 H         1 <0>         0.1338
     25 H7          0.0474   -2.6420    2.1187 H         1 <0>         0.1274
     26 H8         -2.4429    1.6168    5.3970 H         1 <0>         0.1443
     27 H9         -1.1934    2.6892    7.2310 H         1 <0>         0.1450
     28 H10         1.2607    2.7340    7.2012 H         1 <0>         0.1450
     29 H11         2.5037    1.7071    5.3371 H         1 <0>         0.1443
@<TRIPOS>BOND
     1    1    2 1
     2    1   19 1
     3    1   20 1
     4    1   21 1
     5    2    7 ar
     6    2    3 ar
     7    3    4 ar
     8    3   22 1
     9    4    5 ar
    10    4   23 1
    11    5    6 ar
    12    5   24 1
    13    6    7 ar
    14    6   25 1
    15    7    8 1
    16    8   17 am
    17    8    9 am
    18    9   10 2
    19    9   11 1
    20   11   16 ar
    21   11   12 ar
    22   12   13 ar
    23   12   26 1
    24   13   14 ar
    25   13   27 1
    26   14   15 ar
    27   14   28 1
    28   15   16 ar
    29   15   29 1
    30   16   17 1
    31   17   18 2
@<TRIPOS>MOLECULE
CHEMBL1096320
   40    41     0     0     0
SMALL
USER_CHARGES

@<TRIPOS>ATOM
      1 C1         -0.0187    1.5258    0.0104 C.3       1 <0>        -0.1362
      2 C2          0.0021   -0.0041    0.0020 C.3       1 <0>        -0.0929
      3 S1          0.8794   -0.6050    1.4716 S.3       1 <0>        -0.2496
      4 C3          0.8160   -2.4109    1.3127 C.3       1 <0>        -0.1109
      5 C4          1.5298   -3.0531    2.5040 C.3       1 <0>         0.1298
      6 H1          2.5530   -2.6157    2.5285 H         1 <0>         0.0994
      7 C5          1.6968   -4.5509    2.2851 C.3       1 <0>        -0.1338
      8 C6          0.4199   -5.3136    2.6310 C.3       1 <0>         0.1846
      9 C7         -0.0051   -4.9811    4.0593 C.3       1 <0>        -0.1724
     10 C8         -0.1503   -3.4802    4.2671 C.3       1 <0>         0.1073
     11 H2         -0.1490   -3.3055    5.3664 H         1 <0>         0.0906
     12 O1          0.9051   -2.7290    3.7211 O.3       1 <0>        -0.3615
     13 C9         -1.5100   -2.9963    3.7573 C.3       1 <0>        -0.1833
     14 C10         0.7054   -6.7909    2.5465 C.ar      1 <0>        -0.1122
     15 C11         1.9734   -7.2668    2.8234 C.ar      1 <0>        -0.1155
     16 C12         2.2353   -8.6218    2.7458 C.ar      1 <0>        -0.1156
     17 C13         1.2290   -9.5011    2.3919 C.ar      1 <0>        -0.1193
     18 C14        -0.0392   -9.0253    2.1159 C.ar      1 <0>        -0.1152
     19 C15        -0.3021   -7.6707    2.1976 C.ar      1 <0>        -0.1123
     20 O2         -0.6218   -5.0045    1.7073 O.3       1 <0>        -0.5445
     21 H3          1.0039    1.9031    0.0027 H         1 <0>         0.0643
     22 H4         -0.5459    1.8868   -0.8726 H         1 <0>         0.0698
     23 H5         -0.5289    1.8773    0.9072 H         1 <0>         0.0647
     24 H6         -1.0205   -0.3814    0.0098 H         1 <0>         0.0773
     25 H7          0.5123   -0.3556   -0.8948 H         1 <0>         0.0767
     26 H8         -0.2237   -2.7376    1.2929 H         1 <0>         0.0966
     27 H9          1.3091   -2.7118    0.3884 H         1 <0>         0.0831
     28 H10         1.9553   -4.7386    1.2378 H         1 <0>         0.0879
     29 H11         2.5170   -4.9205    2.9092 H         1 <0>         0.0946
     30 H12        -0.9603   -5.4723    4.2735 H         1 <0>         0.0802
     31 H13         0.7417   -5.3745    4.7572 H         1 <0>         0.0815
     32 H14        -2.3047   -3.5072    4.3011 H         1 <0>         0.0599
     33 H15        -1.5953   -1.9211    3.9144 H         1 <0>         0.0656
     34 H16        -1.5983   -3.2162    2.6934 H         1 <0>         0.0672
     35 H17         2.7595   -6.5798    3.0999 H         1 <0>         0.1263
     36 H18         3.2261   -8.9936    2.9615 H         1 <0>         0.1245
     37 H19         1.4338  -10.5598    2.3307 H         1 <0>         0.1234
     38 H20        -0.8252   -9.7123    1.8391 H         1 <0>         0.1239
     39 H21        -1.2939   -7.2993    1.9856 H         1 <0>         0.1198
     40 H22        -1.4538   -5.4643    1.8845 H         1 <0>         0.3762
@<TRIPOS>BOND
     1    1    2 1
     2    1   21 1
     3    1   22 1
     4    1   23 1
     5    2    3 1
     6    2   24 1
     7    2   25 1
     8    3    4 1
     9    4    5 1
    10    4   26 1
    11    4   27 1
    12    5    6 1
    13    5   12 1
    14    5    7 1
    15    7    8 1
    16    7   28 1
    17    7   29 1
    18    8    9 1
    19    8   14 1
    20    8   20 1
    21    9   10 1
    22    9   30 1
    23    9   31 1
    24   10   11 1
    25   10   12 1
    26   10   13 1
    27   13   32 1
    28   13   33 1
    29   13   34 1
    30   14   19 ar
    31   14   15 ar
    32   15   16 ar
    33   15   35 1
    34   16   17 ar
    35   16   36 1
    36   17   18 ar
    37   17   37 1
    38   18   19 ar
    39   18   38 1
    40   19   39 1
    41   20   40 1
@<TRIPOS>MOLECULE
CHEMBL1204023
   36    37     0     0     0
SMALL
USER_CHARGES

@<TRIPOS>ATOM
      1 C1         -0.0168    1.3877    0.0097 C.ar      1 <0>        -0.2791
      2 C2          1.1800    2.0765    0.0019 C.ar      1 <0>         0.0865
      3 N1          2.3325    1.4350   -0.0129 N.ar      1 <0>        -0.5160
      4 C3          2.3979    0.1162   -0.0207 C.ar      1 <0>         0.0246
      5 C4          1.2446   -0.6497   -0.0138 C.ar      1 <0>         0.1273
      6 C5          0.0021   -0.0041    0.0020 C.ar      1 <0>         0.2512
      7 N2         -1.1852   -0.7363    0.0099 N.2       1 <0>        -1.0589
      8 S1         -2.6427    0.0497    0.0286 S.o2      1 <0>         2.5117
      9 O1         -2.6634    0.7458    1.2672 O.2       1 <0>        -0.9564
     10 O2         -2.6879    0.7591   -1.2019 O.2       1 <0>        -0.9563
     11 C6         -3.8851   -1.2720    0.0338 C.3       1 <0>        -0.0082
     12 F1         -3.7127   -2.0696    1.1702 F         1 <0>        -0.1652
     13 F2         -5.1655   -0.7083    0.0495 F         1 <0>        -0.1842
     14 F3         -3.7354   -2.0573   -1.1142 F         1 <0>        -0.1652
     15 N3          1.3194   -2.0483   -0.0225 N.pl3     1 <0>        -0.7332
     16 C7          2.6254   -2.7119   -0.0390 C.3       1 <0>         0.1586
     17 C8          3.1230   -2.8226   -1.4816 C.3       1 <0>        -0.1365
     18 C9          4.4869   -3.5156   -1.4989 C.3       1 <0>        -0.1168
     19 C10         4.3553   -4.9156   -0.8959 C.3       1 <0>        -0.1200
     20 C11         3.8577   -4.8049    0.5467 C.3       1 <0>        -0.1142
     21 C12         2.4938   -4.1119    0.5639 C.3       1 <0>        -0.1257
     22 H1         -0.9553    1.9219    0.0260 H         1 <0>         0.1078
     23 H2          1.1723    3.1565    0.0078 H         1 <0>         0.1341
     24 H3          3.3620   -0.3705   -0.0329 H         1 <0>         0.1360
     25 H4          0.5065   -2.5775   -0.0176 H         1 <0>         0.4063
     26 H5          3.3364   -2.1293    0.5468 H         1 <0>         0.0708
     27 H6          2.4120   -3.4051   -2.0675 H         1 <0>         0.0622
     28 H7          3.2168   -1.8252   -1.9112 H         1 <0>         0.0663
     29 H8          4.8414   -3.5945   -2.5266 H         1 <0>         0.0588
     30 H9          5.1979   -2.9331   -0.9130 H         1 <0>         0.0613
     31 H10         3.6443   -5.4982   -1.4818 H         1 <0>         0.0602
     32 H11         5.3270   -5.4094   -0.9082 H         1 <0>         0.0575
     33 H12         3.7639   -5.8023    0.9762 H         1 <0>         0.0606
     34 H13         4.5687   -4.2224    1.1325 H         1 <0>         0.0624
     35 H14         2.1393   -4.0330    1.5917 H         1 <0>         0.0670
     36 H15         1.7828   -4.6944   -0.0219 H         1 <0>         0.0648
@<TRIPOS>BOND
     1    1    6 ar
     2    1    2 ar
     3    1   22 1
     4    2    3 ar
     5    2   23 1
     6    3    4 ar
     7    4    5 ar
     8    4   24 1
     9    5    6 ar
    10    5   15 1
    11    6    7 1
    12    7    8 1
    13    8    9 2
    14    8   10 2
    15    8   11 1
    16   11   12 1
    17   11   13 1
    18   11   14 1
    19   15   16 1
    20   15   25 1
    21   16   21 1
    22   16   17 1
    23   16   26 1
    24   17   18 1
    25   17   27 1
    26   17   28 1
    27   18   19 1
    28   18   29 1
    29   18   30 1
    30   19   20 1
    31   19   31 1
    32   19   32 1
    33   20   21 1
    34   20   33 1
    35   20   34 1
    36   21   35 1
    37   21   36 1
@<TRIPOS>MOLECULE
CHEMBL1204023__1
   36    37     0     0     0
SMALL
USER_CHARGES

@<TRIPOS>ATOM
      1 C1         -0.0172    1.4181    0.0098 C.2       1 <0>        -0.3349
      2 C2          1.1487    2.0917    0.0023 C.2       1 <0>         0.1149
      3 N1          2.3417    1.4432   -0.0130 N.2       1 <0>        -0.5538
      4 C3          2.4277    0.0805   -0.0212 C.2       1 <0>         0.0240
      5 C4          1.3090   -0.6786   -0.0141 C.2       1 <0>         0.0999
      6 C5          0.0021   -0.0041    0.0020 C.2       1 <0>         0.3082
      7 N2         -1.1230   -0.7000    0.0095 N.2       1 <0>        -1.0435
      8 S1         -2.5815    0.0840    0.0281 S.o2      1 <0>         2.5259
      9 O1         -2.6031    0.7801    1.2668 O.2       1 <0>        -0.9446
     10 O2         -2.6277    0.7933   -1.2023 O.2       1 <0>        -0.9444
     11 C6         -3.8221   -1.2394    0.0334 C.3       1 <0>        -0.0095
     12 F1         -3.6487   -2.0367    1.1697 F         1 <0>        -0.1636
     13 F2         -5.1033   -0.6775    0.0491 F         1 <0>        -0.1813
     14 F3         -3.6713   -2.0245   -1.1147 F         1 <0>        -0.1637
     15 N3          1.3929   -2.0794   -0.0229 N.pl3     1 <0>        -0.7404
     16 C7          2.7031   -2.7347   -0.0399 C.3       1 <0>         0.1623
     17 C8          3.2008   -2.8422   -1.4827 C.3       1 <0>        -0.1367
     18 C9          4.5692   -3.5265   -1.5005 C.3       1 <0>        -0.1169
     19 C10         4.4466   -4.9274   -0.8975 C.3       1 <0>        -0.1197
     20 C11         3.9489   -4.8199    0.5452 C.3       1 <0>        -0.1143
     21 C12         2.5806   -4.1355    0.5630 C.3       1 <0>        -0.1254
     22 H1         -0.9561    1.9515    0.0261 H         1 <0>         0.1056
     23 H2          1.1348    3.1716    0.0083 H         1 <0>         0.1292
     24 H3          3.3974   -0.3948   -0.0337 H         1 <0>         0.1332
     25 H4          0.5834   -2.6138   -0.0178 H         1 <0>         0.4016
     26 H5          3.4105   -2.1477    0.5457 H         1 <0>         0.0699
     27 H6          2.4934   -3.4292   -2.0684 H         1 <0>         0.0612
     28 H7          3.2881   -1.8442   -1.9123 H         1 <0>         0.0664
     29 H8          4.9238   -3.6031   -2.5283 H         1 <0>         0.0585
     30 H9          5.2766   -2.9395   -0.9148 H         1 <0>         0.0612
     31 H10         3.7392   -5.5144   -1.4832 H         1 <0>         0.0599
     32 H11         5.4215   -5.4149   -0.9102 H         1 <0>         0.0573
     33 H12         3.8616   -5.8178    0.9748 H         1 <0>         0.0603
     34 H13         4.6563   -4.2328    1.1309 H         1 <0>         0.0624
     35 H14         2.2259   -4.0589    1.5909 H         1 <0>         0.0665
     36 H15         1.8731   -4.7226   -0.0226 H         1 <0>         0.0640
@<TRIPOS>BOND
     1    1    6 1
     2    1    2 2
     3    1   22 1
     4    2    3 1
     5    2   23 1
     6    3    4 1
     7    4    5 2
     8    4   24 1
     9    5    6 1
    10    5   15 1
    11    6    7 2
    12    7    8 1
    13    8    9 2
    14    8   10 2
    15    8   11 1
    16   11   12 1
    17   11   13 1
    18   11   14 1
    19   15   16 1
    20   15   25 1
    21   16   21 1
    22   16   17 1
    23   16   26 1
    24   17   18 1
    25   17   27 1
    26   17   28 1
    27   18   19 1
    28   18   29 1
    29   18   30 1
    30   19   20 1
    31   19   31 1
    32   19   32 1
    33   20   21 1
    34   20   33 1
    35   20   34 1
    36   21   35 1
    37   21   36 1
@<TRIPOS>MOLECULE
CHEMBL1204023__2
   37    38     0     0     0
SMALL
USER_CHARGES

@<TRIPOS>ATOM
      1 C1         -0.0172    1.4181    0.0098 C.2       1 <0>        -0.3158
      2 C2          1.1487    2.0917    0.0023 C.2       1 <0>         0.1878
      3 N1          2.3417    1.4432   -0.0130 N.pl3     1 <0>        -0.5514
      4 C3          2.4277    0.0805   -0.0216 C.2       1 <0>        -0.0062
      5 C4          1.3090   -0.6786   -0.0146 C.2       1 <0>         0.1665
      6 C5          0.0021   -0.0041    0.0020 C.2       1 <0>         0.3819
      7 N2         -1.1230   -0.7000    0.0095 N.2       1 <0>        -1.0015
      8 S1         -2.5815    0.0840    0.0281 S.o2      1 <0>         2.5487
      9 O1         -2.6031    0.7801    1.2668 O.2       1 <0>        -0.9165
     10 O2         -2.6277    0.7933   -1.2023 O.2       1 <0>        -0.9164
     11 C6         -3.8221   -1.2394    0.0334 C.3       1 <0>        -0.0028
     12 F1         -3.6487   -2.0367    1.1697 F         1 <0>        -0.1569
     13 F2         -5.1033   -0.6775    0.0491 F         1 <0>        -0.1662
     14 F3         -3.6713   -2.0245   -1.1147 F         1 <0>        -0.1569
     15 N3          1.3929   -2.0794   -0.0239 N.pl3     1 <0>        -0.7184
     16 C7          2.7031   -2.7347   -0.0413 C.3       1 <0>         0.1505
     17 C8          3.2005   -2.8417   -1.4842 C.3       1 <0>        -0.1377
     18 C9          4.5688   -3.5261   -1.5025 C.3       1 <0>        -0.1178
     19 C10         4.4465   -4.9271   -0.9000 C.3       1 <0>        -0.1244
     20 C11         3.9490   -4.8200    0.5429 C.3       1 <0>        -0.1157
     21 C12         2.5807   -4.1357    0.5612 C.3       1 <0>        -0.1277
     22 H1         -0.9561    1.9515    0.0261 H         1 <0>         0.1502
     23 H2          1.1348    3.1716    0.0083 H         1 <0>         0.1804
     24 H3          3.3974   -0.3948   -0.0345 H         1 <0>         0.1749
     25 H4          0.5834   -2.6138   -0.0187 H         1 <0>         0.4174
     26 H5          3.4106   -2.1478    0.5443 H         1 <0>         0.0781
     27 H6          2.4930   -3.4286   -2.0699 H         1 <0>         0.0701
     28 H7          3.2877   -1.8436   -1.9135 H         1 <0>         0.0651
     29 H8          4.9233   -3.6023   -2.5304 H         1 <0>         0.0658
     30 H9          5.2764   -2.9392   -0.9168 H         1 <0>         0.0625
     31 H10         3.7389   -5.5139   -1.4856 H         1 <0>         0.0639
     32 H11         5.4213   -5.4146   -0.9130 H         1 <0>         0.0644
     33 H12         3.8618   -5.8182    0.9722 H         1 <0>         0.0682
     34 H13         4.6566   -4.2332    1.1286 H         1 <0>         0.0645
     35 H14         2.2263   -4.0595    1.5891 H         1 <0>         0.0717
     36 H15         1.8731   -4.7226   -0.0245 H         1 <0>         0.0709
     37 H16         3.1594    1.9650   -0.0183 H         1 <0>         0.4288
@<TRIPOS>BOND
     1    1    6 1
     2    1    2 2
     3    1   22 1
     4    2    3 1
     5    2   23 1
     6    3    4 1
     7    3   37 1
     8    4    5 2
     9    4   24 1
    10    5    6 1
    11    5   15 1
    12    6    7 2
    13    7    8 1
    14    8    9 2
    15    8   10 2
    16    8   11 1
    17   11   12 1
    18   11   13 1
    19   11   14 1
    20   15   16 1
    21   15   25 1
    22   16   21 1
    23   16   17 1
    24   16   26 1
    25   17   18 1
    26   17   27 1
    27   17   28 1
    28   18   19 1
    29   18   29 1
    30   18   30 1
    31   19   20 1
    32   19   31 1
    33   19   32 1
    34   20   21 1
    35   20   33 1
    36   20   34 1
    37   21   35 1
    38   21   36 1
@<TRIPOS>MOLECULE
CHEMBL83990
   38    40     0     0     0
SMALL
USER_CHARGES

@<TRIPOS>ATOM
      1 C1         -0.0178    1.4648    0.0101 C.3       1 <0>         0.0133
      2 N1          0.0021   -0.0041    0.0020 N.3       1 <0>        -0.3504
      3 C2          0.7062   -0.5275    1.1802 C.3       1 <0>         0.0157
      4 C3          0.5988   -2.0536    1.2023 C.3       1 <0>        -0.0779
      5 C4          1.3212   -2.5905    2.4110 C.ar      1 <0>        -0.0919
      6 C5          2.6667   -2.9118    2.3255 C.ar      1 <0>        -0.0786
      7 C6          3.3451   -3.4136    3.4194 C.ar      1 <0>        -0.1289
      8 C7          2.6721   -3.5941    4.6212 C.ar      1 <0>         0.1338
      9 C8          1.3257   -3.2551    4.7083 C.ar      1 <0>        -0.1783
     10 C9          0.6419   -2.7555    3.6015 C.ar      1 <0>        -0.0518
     11 C10         0.6746   -3.4127    6.0194 C.2       1 <0>         0.4498
     12 O1          0.1840   -2.4430    6.5647 O.2       1 <0>        -0.4295
     13 C11         0.6080   -4.7304    6.6818 C.ar      1 <0>        -0.1408
     14 C12        -0.6149   -5.0652    7.2888 C.ar      1 <0>        -0.0730
     15 C13        -0.7725   -6.2701    7.9321 C.ar      1 <0>        -0.1223
     16 C14         0.2869   -7.1598    7.9802 C.ar      1 <0>        -0.0890
     17 C15         1.4870   -6.8375    7.3865 C.ar      1 <0>        -0.1275
     18 C16         1.6679   -5.6211    6.7282 C.ar      1 <0>        -0.0782
     19 C17         3.0335   -5.4173    6.1272 C.3       1 <0>         0.1127
     20 O2          3.3001   -4.1069    5.6959 O.3       1 <0>        -0.3259
     21 O3          0.5971   -0.5136   -1.2336 O.3       1 <0>        -0.4347
     22 H1          1.0047    1.8421    0.0024 H         1 <0>         0.0396
     23 H2         -0.5450    1.8259   -0.8730 H         1 <0>         0.0831
     24 H3         -0.5280    1.8163    0.9069 H         1 <0>         0.0928
     25 H4          1.7560   -0.2377    1.1346 H         1 <0>         0.0518
     26 H5          0.2553   -0.1185    2.0844 H         1 <0>         0.0954
     27 H6         -0.4509   -2.3433    1.2479 H         1 <0>         0.0886
     28 H7          1.0497   -2.4626    0.2981 H         1 <0>         0.0776
     29 H8          3.1912   -2.7678    1.3925 H         1 <0>         0.1342
     30 H9          4.3926   -3.6645    3.3405 H         1 <0>         0.1408
     31 H10        -0.4060   -2.5043    3.6732 H         1 <0>         0.1362
     32 H11        -1.4393   -4.3685    7.2498 H         1 <0>         0.1316
     33 H12        -1.7150   -6.5203    8.3963 H         1 <0>         0.1345
     34 H13         0.1723   -8.1080    8.4843 H         1 <0>         0.1326
     35 H14         2.3053   -7.5409    7.4320 H         1 <0>         0.1319
     36 H15         3.7813   -5.6939    6.8704 H         1 <0>         0.1260
     37 H16         3.1376   -6.0879    5.2743 H         1 <0>         0.0758
     38 H17         0.6320   -1.4786   -1.2846 H         1 <0>         0.3807
@<TRIPOS>BOND
     1    1    2 1
     2    1   22 1
     3    1   23 1
     4    1   24 1
     5    2    3 1
     6    2   21 1
     7    3    4 1
     8    3   25 1
     9    3   26 1
    10    4    5 1
    11    4   27 1
    12    4   28 1
    13    5   10 ar
    14    5    6 ar
    15    6    7 ar
    16    6   29 1
    17    7    8 ar
    18    7   30 1
    19    8   20 1
    20    8    9 ar
    21    9   10 ar
    22    9   11 1
    23   10   31 1
    24   11   12 2
    25   11   13 1
    26   13   18 ar
    27   13   14 ar
    28   14   15 ar
    29   14   32 1
    30   15   16 ar
    31   15   33 1
    32   16   17 ar
    33   16   34 1
    34   17   18 ar
    35   17   35 1
    36   18   19 1
    37   19   20 1
    38   19   36 1
    39   19   37 1
    40   21   38 1
@<TRIPOS>MOLECULE
CHEMBL433892
   39    42     0     0     0
SMALL
USER_CHARGES

@<TRIPOS>ATOM
      1 C1          0.0417    1.4748    0.1500 C.ar      1 <0>        -0.1115
      2 C2          0.5513    0.8964    1.2986 C.ar      1 <0>        -0.1200
      3 C3          1.7420    0.1998    1.2537 C.ar      1 <0>        -0.0942
      4 C4          2.4309    0.0798    0.0485 C.ar      1 <0>        -0.0147
      5 C5          1.9130    0.6645   -1.1055 C.ar      1 <0>        -0.0917
      6 C6          0.7215    1.3588   -1.0491 C.ar      1 <0>        -0.1204
      7 C7          3.7118   -0.6674   -0.0059 C.2       1 <0>         0.1252
      8 C8          3.9903   -1.8764    0.6496 C.2       1 <0>        -0.2129
      9 C9          5.2630   -2.2316    0.3494 C.2       1 <0>         0.0898
     10 N1          5.7774   -1.2855   -0.4693 N.pl3     1 <0>        -0.3209
     11 N2          4.7870   -0.3152   -0.6834 N.2       1 <0>        -0.2760
     12 C10         7.0693   -1.2784   -1.0117 C.ar      1 <0>         0.1503
     13 C11         7.6228   -2.4521   -1.5057 C.ar      1 <0>        -0.1257
     14 C12         8.8965   -2.4419   -2.0396 C.ar      1 <0>        -0.0997
     15 C13         9.6206   -1.2646   -2.0821 C.ar      1 <0>        -0.1178
     16 C14         9.0722   -0.0942   -1.5906 C.ar      1 <0>        -0.1012
     17 C15         7.7965   -0.0965   -1.0614 C.ar      1 <0>        -0.1079
     18 C16         5.9390   -3.4763    0.8680 C.3       1 <0>        -0.0576
     19 C17         5.1326   -4.0036    2.0612 C.3       1 <0>        -0.1143
     20 C18         3.6528   -4.0931    1.6785 C.3       1 <0>        -0.1212
     21 C19         3.0742   -2.6796    1.5388 C.3       1 <0>        -0.0412
     22 H1         -0.8926    2.0151    0.1887 H         1 <0>         0.1246
     23 H2          0.0167    0.9903    2.2322 H         1 <0>         0.1271
     24 H3          2.1391   -0.2511    2.1511 H         1 <0>         0.1264
     25 H4          2.4431    0.5749   -2.0421 H         1 <0>         0.1241
     26 H5          0.3191    1.8124   -1.9428 H         1 <0>         0.1259
     27 H6          7.0581   -3.3721   -1.4721 H         1 <0>         0.1296
     28 H7          9.3277   -3.3545   -2.4240 H         1 <0>         0.1341
     29 H8         10.6165   -1.2592   -2.4998 H         1 <0>         0.1309
     30 H9          9.6404    0.8236   -1.6245 H         1 <0>         0.1333
     31 H10         7.3669    0.8189   -0.6820 H         1 <0>         0.1317
     32 H11         5.9693   -4.2318    0.0829 H         1 <0>         0.0856
     33 H12         6.9533   -3.2373    1.1874 H         1 <0>         0.0823
     34 H13         5.4969   -4.9932    2.3369 H         1 <0>         0.0756
     35 H14         5.2488   -3.3253    2.9064 H         1 <0>         0.0693
     36 H15         3.5540   -4.6215    0.7303 H         1 <0>         0.0653
     37 H16         3.1091   -4.6332    2.4537 H         1 <0>         0.0717
     38 H17         3.0107   -2.2100    2.5204 H         1 <0>         0.0714
     39 H18         2.0815   -2.7320    1.0916 H         1 <0>         0.0747
@<TRIPOS>BOND
     1    1    6 ar
     2    1    2 ar
     3    1   22 1
     4    2    3 ar
     5    2   23 1
     6    3    4 ar
     7    3   24 1
     8    4    5 ar
     9    4    7 1
    10    5    6 ar
    11    5   25 1
    12    6   26 1
    13    7   11 2
    14    7    8 1
    15    8   21 1
    16    8    9 2
    17    9   10 1
    18    9   18 1
    19   10   11 1
    20   10   12 1
    21   12   17 ar
    22   12   13 ar
    23   13   14 ar
    24   13   27 1
    25   14   15 ar
    26   14   28 1
    27   15   16 ar
    28   15   29 1
    29   16   17 ar
    30   16   30 1
    31   17   31 1
    32   18   19 1
    33   18   32 1
    34   18   33 1
    35   19   20 1
    36   19   34 1
    37   19   35 1
    38   20   21 1
    39   20   36 1
    40   20   37 1
    41   21   38 1
    42   21   39 1
@<TRIPOS>MOLECULE
CHEMBL332028
   45    48     0     0     0
SMALL
USER_CHARGES

@<TRIPOS>ATOM
      1 C1         -0.0187    1.5258    0.0104 C.3       1 <0>        -0.1354
      2 C2          0.0021   -0.0041    0.0020 C.3       1 <0>        -0.0511
      3 C3         -1.4210   -0.5774    0.2005 C.3       1 <0>         0.0554
      4 O1         -1.4943   -0.7627    1.6241 O.3       1 <0>        -0.2953
      5 C4         -0.2419   -0.9740    2.1156 C.ar      1 <0>         0.1233
      6 C5          0.7293   -0.5431    1.2190 C.ar      1 <0>        -0.1613
      7 C6          2.0665   -0.6502    1.5207 C.ar      1 <0>        -0.0385
      8 C7          2.4620   -1.2051    2.7379 C.ar      1 <0>        -0.0372
      9 C8          1.4939   -1.6463    3.6379 C.ar      1 <0>        -0.0727
     10 C9          0.1564   -1.5321    3.3288 C.ar      1 <0>        -0.0878
     11 C10        -0.8825   -2.0122    4.3092 C.3       1 <0>        -0.0210
     12 C11        -0.1895   -2.5772    5.5508 C.3       1 <0>        -0.1466
     13 C12        -1.7805   -0.8417    4.7147 C.3       1 <0>        -0.1405
     14 C13        -1.7322   -3.1051    3.6577 C.3       1 <0>        -0.1407
     15 C14         3.9026   -1.3242    3.0719 C.2       1 <0>         0.0917
     16 C15         4.4143   -1.8467    4.2126 C.2       1 <0>        -0.0323
     17 N1          5.8004   -1.7696    4.1259 N.pl3     1 <0>        -0.4346
     18 C16         6.8960   -2.1013    4.8932 C.2       1 <0>         0.0284
     19 C17         8.1319   -1.8638    4.4568 C.2       1 <0>        -0.1752
     20 S1          7.8241   -1.1223    2.8614 S.3       1 <0>         0.1286
     21 C18         6.0482   -1.1910    2.9083 C.2       1 <0>         0.1789
     22 N2          4.9317   -0.9366    2.2905 N.2       1 <0>        -0.4344
     23 C19         0.6303   -0.5327   -1.2890 C.3       1 <0>        -0.1370
     24 H1          1.0039    1.9031    0.0027 H         1 <0>         0.0637
     25 H2         -0.5459    1.8868   -0.8726 H         1 <0>         0.0642
     26 H3         -0.5289    1.8773    0.9072 H         1 <0>         0.0601
     27 H4         -2.1745    0.1348   -0.1354 H         1 <0>         0.1067
     28 H5         -1.5294   -1.5296   -0.3188 H         1 <0>         0.0785
     29 H6          2.8093   -0.3057    0.8164 H         1 <0>         0.1323
     30 H7          1.7932   -2.0799    4.5807 H         1 <0>         0.1356
     31 H8          0.4159   -1.7986    6.0150 H         1 <0>         0.0584
     32 H9         -0.9409   -2.9244    6.2599 H         1 <0>         0.0605
     33 H10         0.4503   -3.4111    5.2619 H         1 <0>         0.0582
     34 H11        -2.2742   -0.4392    3.8302 H         1 <0>         0.0651
     35 H12        -2.5319   -1.1889    5.4239 H         1 <0>         0.0573
     36 H13        -1.1751   -0.0631    5.1789 H         1 <0>         0.0533
     37 H14        -1.0924   -3.9389    3.3688 H         1 <0>         0.0531
     38 H15        -2.4836   -3.4523    4.3668 H         1 <0>         0.0576
     39 H16        -2.2259   -2.7025    2.7732 H         1 <0>         0.0641
     40 H17         3.8484   -2.2495    5.0396 H         1 <0>         0.1840
     41 H18         6.7507   -2.5591    5.8605 H         1 <0>         0.1755
     42 H19         9.0752   -2.0664    4.9421 H         1 <0>         0.2184
     43 H20         1.6580   -0.1775   -1.3650 H         1 <0>         0.0650
     44 H21         0.6225   -1.6226   -1.2772 H         1 <0>         0.0601
     45 H22         0.0579   -0.1745   -2.1448 H         1 <0>         0.0635
@<TRIPOS>BOND
     1    1    2 1
     2    1   24 1
     3    1   25 1
     4    1   26 1
     5    2    6 1
     6    2    3 1
     7    2   23 1
     8    3    4 1
     9    3   27 1
    10    3   28 1
    11    4    5 1
    12    5   10 ar
    13    5    6 ar
    14    6    7 ar
    15    7    8 ar
    16    7   29 1
    17    8    9 ar
    18    8   15 1
    19    9   10 ar
    20    9   30 1
    21   10   11 1
    22   11   12 1
    23   11   13 1
    24   11   14 1
    25   12   31 1
    26   12   32 1
    27   12   33 1
    28   13   34 1
    29   13   35 1
    30   13   36 1
    31   14   37 1
    32   14   38 1
    33   14   39 1
    34   15   22 1
    35   15   16 2
    36   16   17 1
    37   16   40 1
    38   17   21 1
    39   17   18 1
    40   18   19 2
    41   18   41 1
    42   19   20 1
    43   19   42 1
    44   20   21 1
    45   21   22 2
    46   23   43 1
    47   23   44 1
    48   23   45 1
@<TRIPOS>MOLECULE
CHEMBL147165
   29    30     0     0     0
SMALL
USER_CHARGES

@<TRIPOS>ATOM
      1 C1         -0.0117    1.3852    0.0702 C.ar      1 <0>        -0.1363
      2 C2          0.4458    0.7297    1.1984 C.ar      1 <0>        -0.1049
      3 C3          1.6500    0.0536    1.1653 C.ar      1 <0>        -0.1456
      4 C4          2.4004    0.0323   -0.0017 C.ar      1 <0>         0.1036
      5 C5          1.9388    0.6906   -1.1327 C.ar      1 <0>        -0.1298
      6 C6          0.7342    1.3655   -1.0940 C.ar      1 <0>        -0.1057
      7 O1          3.5855   -0.6315   -0.0368 O.3       1 <0>        -0.2330
      8 C7          3.5606   -1.9878    0.0609 C.ar      1 <0>         0.0144
      9 C8          2.3569   -2.6700    0.0631 C.ar      1 <0>         0.0502
     10 N1          2.3270   -3.9863    0.1582 N.ar      1 <0>        -0.5232
     11 C9          3.4298   -4.7045    0.2540 C.ar      1 <0>         0.1143
     12 C10         4.6711   -4.1016    0.2591 C.ar      1 <0>        -0.2859
     13 C11         4.7518   -2.7149    0.1550 C.ar      1 <0>         0.2953
     14 N2          5.9871   -2.0684    0.1502 N.2       1 <0>        -1.0365
     15 S1          7.3839   -2.9507    0.2627 S.o2      1 <0>         2.5090
     16 O2          7.3243   -3.5623    1.5439 O.2       1 <0>        -0.9545
     17 O3          7.4089   -3.7420   -0.9173 O.2       1 <0>        -0.9543
     18 C12         8.7168   -1.7211    0.2187 C.3       1 <0>        -0.0051
     19 F1          8.5736   -0.8394    1.2954 F         1 <0>        -0.1633
     20 F2          9.9530   -2.3699    0.3086 F         1 <0>        -0.1830
     21 F3          8.6519   -1.0056   -0.9818 F         1 <0>        -0.1632
     22 H1         -0.9554    1.9096    0.0970 H         1 <0>         0.1211
     23 H2         -0.1386    0.7466    2.1065 H         1 <0>         0.1238
     24 H3          2.0072   -0.4576    2.0471 H         1 <0>         0.1290
     25 H4          2.5209    0.6755   -2.0422 H         1 <0>         0.1307
     26 H5          0.3746    1.8783   -1.9738 H         1 <0>         0.1250
     27 H6          1.4311   -2.1192   -0.0135 H         1 <0>         0.1446
     28 H7          3.3598   -5.7796    0.3299 H         1 <0>         0.1440
     29 H8          5.5684   -4.6974    0.3386 H         1 <0>         0.1188
@<TRIPOS>BOND
     1    1    6 ar
     2    1    2 ar
     3    1   22 1
     4    2    3 ar
     5    2   23 1
     6    3    4 ar
     7    3   24 1
     8    4    5 ar
     9    4    7 1
    10    5    6 ar
    11    5   25 1
    12    6   26 1
    13    7    8 1
    14    8   13 ar
    15    8    9 ar
    16    9   10 ar
    17    9   27 1
    18   10   11 ar
    19   11   12 ar
    20   11   28 1
    21   12   13 ar
    22   12   29 1
    23   13   14 1
    24   14   15 1
    25   15   16 2
    26   15   17 2
    27   15   18 1
    28   18   19 1
    29   18   20 1
    30   18   21 1
@<TRIPOS>MOLECULE
CHEMBL243796
   62    64     0     0     0
SMALL
USER_CHARGES

@<TRIPOS>ATOM
      1 C1          4.1210    1.3202    5.0937 C.3       1 <0>        -0.1165
      2 C2          3.6872    2.7275    5.4133 C.2       1 <0>        -0.1365
      3 C3          2.5310    3.1698    4.9848 C.2       1 <0>        -0.1593
      4 C4          1.5815    2.2360    4.2795 C.3       1 <0>        -0.0859
      5 C5          0.2348    2.2339    5.0057 C.3       1 <0>        -0.0372
      6 C6         -0.6880    1.1946    4.3659 C.3       1 <0>        -0.0516
      7 C7         -1.9516    1.0767    5.1786 C.ar      1 <0>        -0.1832
      8 C8         -3.0771    1.8074    4.8188 C.ar      1 <0>         0.2280
      9 C9         -4.2504    1.7110    5.5563 C.ar      1 <0>        -0.2817
     10 C10        -4.3073    0.8828    6.6633 C.ar      1 <0>         0.2318
     11 C11        -3.1722    0.1453    7.0340 C.ar      1 <0>        -0.2938
     12 C12        -1.9888    0.2369    6.2773 C.ar      1 <0>         0.2344
     13 O1         -0.8946   -0.4860    6.6131 O.3       1 <0>        -0.2931
     14 C13        -0.7670   -0.9518    7.9564 C.3       1 <0>         0.1502
     15 H1         -0.6229   -0.1022    8.6238 H         1 <0>         0.0966
     16 C14        -2.0431   -1.7068    8.3561 C.3       1 <0>        -0.1910
     17 C15        -3.2002   -0.7315    8.2098 C.2       1 <0>         0.4027
     18 O2         -4.1063   -0.6886    9.0162 O.2       1 <0>        -0.4279
     19 C16         0.4180   -1.8773    8.0573 C.ar      1 <0>        -0.1250
     20 C17         0.8591   -2.5587    6.9388 C.ar      1 <0>        -0.0589
     21 C18         1.9452   -3.4079    7.0281 C.ar      1 <0>        -0.1528
     22 C19         2.5961   -3.5786    8.2420 C.ar      1 <0>         0.1326
     23 C20         2.1557   -2.8962    9.3653 C.ar      1 <0>        -0.1719
     24 C21         1.0689   -2.0402    9.2718 C.ar      1 <0>         0.1412
     25 O3          0.6384   -1.3652   10.3699 O.3       1 <0>        -0.4936
     26 O4          3.6641   -4.4143    8.3293 O.3       1 <0>        -0.4969
     27 O5         -5.4512    0.7848    7.3850 O.3       1 <0>        -0.2857
     28 C22        -6.5641    1.5664    6.9462 C.3       1 <0>         0.0209
     29 O6         -3.0296    2.6239    3.7363 O.3       1 <0>        -0.4816
     30 C23        -0.3955    3.5986    4.8992 C.2       1 <0>        -0.0948
     31 C24        -0.7914    4.2234    5.9805 C.2       1 <0>        -0.2041
     32 C25        -0.5703    4.2446    3.5490 C.3       1 <0>        -0.1228
     33 C26         4.5835    3.6261    6.2259 C.3       1 <0>        -0.1175
     34 H2          4.0888    1.1662    4.0151 H         1 <0>         0.0642
     35 H3          5.1380    1.1630    5.4529 H         1 <0>         0.0576
     36 H4          3.4500    0.6134    5.5818 H         1 <0>         0.0653
     37 H5          2.2583    4.2037    5.1369 H         1 <0>         0.1069
     38 H6          1.4395    2.5703    3.2517 H         1 <0>         0.0723
     39 H7          1.9960    1.2280    4.2798 H         1 <0>         0.0724
     40 H8          0.3887    1.9857    6.0558 H         1 <0>         0.0734
     41 H9         -0.9364    1.5051    3.3510 H         1 <0>         0.0755
     42 H10        -0.1830    0.2291    4.3371 H         1 <0>         0.0770
     43 H11        -5.1192    2.2828    5.2650 H         1 <0>         0.1429
     44 H12        -2.1870   -2.5656    7.7004 H         1 <0>         0.1153
     45 H13        -1.9695   -2.0377    9.3920 H         1 <0>         0.1083
     46 H14         0.3537   -2.4275    5.9934 H         1 <0>         0.1405
     47 H15         2.2878   -3.9396    6.1527 H         1 <0>         0.1359
     48 H16         2.6609   -3.0277   10.3107 H         1 <0>         0.1398
     49 H17        -0.0266   -1.8395   10.8875 H         1 <0>         0.3955
     50 H18         4.5140   -3.9856    8.1589 H         1 <0>         0.3963
     51 H19        -7.4122    1.3954    7.6093 H         1 <0>         0.1064
     52 H20        -6.2959    2.6228    6.9644 H         1 <0>         0.0609
     53 H21        -6.8331    1.2773    5.9303 H         1 <0>         0.0598
     54 H22        -3.2840    2.1943    2.9082 H         1 <0>         0.3965
     55 H23        -1.2432    5.2014    5.9042 H         1 <0>         0.0917
     56 H24        -0.6662    3.7604    6.9481 H         1 <0>         0.0876
     57 H25        -1.5701    4.0313    3.1709 H         1 <0>         0.0828
     58 H26        -0.4396    5.3227    3.6424 H         1 <0>         0.0547
     59 H27         0.1723    3.8471    2.8572 H         1 <0>         0.0585
     60 H28         5.4940    3.0883    6.4901 H         1 <0>         0.0596
     61 H29         4.8399    4.5091    5.6406 H         1 <0>         0.0629
     62 H30         4.0648    3.9308    7.1349 H         1 <0>         0.0636
@<TRIPOS>BOND
     1    1    2 1
     2    1   34 1
     3    1   35 1
     4    1   36 1
     5    2    3 2
     6    2   33 1
     7    3    4 1
     8    3   37 1
     9    4    5 1
    10    4   38 1
    11    4   39 1
    12    5    6 1
    13    5   30 1
    14    5   40 1
    15    6    7 1
    16    6   41 1
    17    6   42 1
    18    7   12 ar
    19    7    8 ar
    20    8    9 ar
    21    8   29 1
    22    9   10 ar
    23    9   43 1
    24   10   11 ar
    25   10   27 1
    26   11   17 1
    27   11   12 ar
    28   12   13 1
    29   13   14 1
    30   14   15 1
    31   14   16 1
    32   14   19 1
    33   16   17 1
    34   16   44 1
    35   16   45 1
    36   17   18 2
    37   19   24 ar
    38   19   20 ar
    39   20   21 ar
    40   20   46 1
    41   21   22 ar
    42   21   47 1
    43   22   23 ar
    44   22   26 1
    45   23   24 ar
    46   23   48 1
    47   24   25 1
    48   25   49 1
    49   26   50 1
    50   27   28 1
    51   28   51 1
    52   28   52 1
    53   28   53 1
    54   29   54 1
    55   30   31 2
    56   30   32 1
    57   31   55 1
    58   31   56 1
    59   32   57 1
    60   32   58 1
    61   32   59 1
    62   33   60 1
    63   33   61 1
    64   33   62 1
@<TRIPOS>MOLECULE
CHEMBL243796__1
   62    64     0     0     0
SMALL
USER_CHARGES

@<TRIPOS>ATOM
      1 C1          3.3017    2.4910    4.8802 C.3       1 <0>        -0.1199
      2 C2          2.3387    3.5960    5.2304 C.2       1 <0>        -0.1338
      3 C3          1.0706    3.4819    4.9221 C.2       1 <0>        -0.1580
      4 C4          0.5496    2.1929    4.3406 C.3       1 <0>        -0.0845
      5 C5         -0.6352    1.6997    5.1737 C.3       1 <0>        -0.0387
      6 C6         -1.2424    0.4604    4.5131 C.3       1 <0>        -0.0523
      7 C7         -2.4990    0.0657    5.2453 C.ar      1 <0>        -0.1809
      8 C8         -3.7049    0.6805    4.9323 C.ar      1 <0>         0.2189
      9 C9         -4.8732    0.3292    5.5968 C.ar      1 <0>        -0.2855
     10 C10        -4.8446   -0.6406    6.5834 C.ar      1 <0>         0.2318
     11 C11        -3.6286   -1.2623    6.9066 C.ar      1 <0>        -0.2933
     12 C12        -2.4492   -0.9118    6.2230 C.ar      1 <0>         0.2433
     13 O1         -1.2747   -1.5199    6.5117 O.3       1 <0>        -0.2873
     14 C13        -1.1204   -2.1410    7.7876 C.3       1 <0>         0.1506
     15 H1         -1.1141   -1.3774    8.5655 H         1 <0>         0.0966
     16 C14        -2.2896   -3.1072    8.0275 C.3       1 <0>        -0.1919
     17 C15        -3.5666   -2.2852    7.9564 C.2       1 <0>         0.4032
     18 O2         -4.4916   -2.4733    8.7194 O.2       1 <0>        -0.4284
     19 C16         0.1786   -2.9042    7.8216 C.ar      1 <0>        -0.1225
     20 C17         0.7455   -3.3549    6.6446 C.ar      1 <0>        -0.0591
     21 C18         1.9363   -4.0549    6.6725 C.ar      1 <0>        -0.1525
     22 C19         2.5662   -4.3072    7.8833 C.ar      1 <0>         0.1322
     23 C20         1.9995   -3.8562    9.0651 C.ar      1 <0>        -0.1718
     24 C21         0.8073   -3.1490    9.0341 C.ar      1 <0>         0.1405
     25 O3          0.2524   -2.7003   10.1906 O.3       1 <0>        -0.4936
     26 O4          3.7372   -4.9962    7.9100 O.3       1 <0>        -0.4971
     27 O5         -5.9831   -0.9875    7.2335 O.3       1 <0>        -0.2856
     28 C22        -7.1815   -0.3103    6.8495 C.3       1 <0>         0.0208
     29 O6         -3.7419    1.6343    3.9681 O.3       1 <0>        -0.4871
     30 C23        -0.1625    1.3489    6.5609 C.2       1 <0>        -0.0940
     31 C24        -0.7442    1.8834    7.6059 C.2       1 <0>        -0.2065
     32 C25         0.9795    0.3832    6.7461 C.3       1 <0>        -0.1121
     33 C26         2.8345    4.8324    5.9351 C.3       1 <0>        -0.1174
     34 H2          3.2397    2.2797    3.8127 H         1 <0>         0.0637
     35 H3          4.3164    2.8002    5.1310 H         1 <0>         0.0575
     36 H4          3.0455    1.5937    5.4436 H         1 <0>         0.0680
     37 H5          0.3986    4.3115    5.0848 H         1 <0>         0.1044
     38 H6          0.2262    2.3622    3.3136 H         1 <0>         0.0700
     39 H7          1.3402    1.4427    4.3536 H         1 <0>         0.0732
     40 H8         -1.3887    2.4851    5.2343 H         1 <0>         0.0776
     41 H9         -1.4825    0.6836    3.4736 H         1 <0>         0.0740
     42 H10        -0.5260   -0.3601    4.5525 H         1 <0>         0.0796
     43 H11        -5.8047    0.8132    5.3429 H         1 <0>         0.1428
     44 H12        -2.2948   -3.8814    7.2602 H         1 <0>         0.1149
     45 H13        -2.1990   -3.5618    9.0141 H         1 <0>         0.1075
     46 H14         0.2568   -3.1599    5.7015 H         1 <0>         0.1403
     47 H15         2.3772   -4.4064    5.7514 H         1 <0>         0.1354
     48 H16         2.4882   -4.0515   10.0083 H         1 <0>         0.1393
     49 H17        -0.3557   -3.3280   10.6045 H         1 <0>         0.3953
     50 H18         4.5238   -4.4377    7.8428 H         1 <0>         0.3962
     51 H19        -8.0153   -0.6813    7.4454 H         1 <0>         0.1065
     52 H20        -7.0633    0.7603    7.0167 H         1 <0>         0.0607
     53 H21        -7.3798   -0.4934    5.7934 H         1 <0>         0.0597
     54 H22        -3.9866    1.3007    3.0941 H         1 <0>         0.3995
     55 H23        -0.4054    1.6320    8.6001 H         1 <0>         0.0910
     56 H24        -1.5626    2.5755    7.4732 H         1 <0>         0.0904
     57 H25         1.9141    0.9376    6.8313 H         1 <0>         0.0614
     58 H26         0.8189   -0.1998    7.6529 H         1 <0>         0.0582
     59 H27         1.0315   -0.2868    5.8879 H         1 <0>         0.0635
     60 H28         3.9075    4.7471    6.1067 H         1 <0>         0.0592
     61 H29         2.6338    5.7078    5.3175 H         1 <0>         0.0624
     62 H30         2.3208    4.9365    6.8908 H         1 <0>         0.0637
@<TRIPOS>BOND
     1    1    2 1
     2    1   34 1
     3    1   35 1
     4    1   36 1
     5    2    3 2
     6    2   33 1
     7    3    4 1
     8    3   37 1
     9    4    5 1
    10    4   38 1
    11    4   39 1
    12    5    6 1
    13    5   30 1
    14    5   40 1
    15    6    7 1
    16    6   41 1
    17    6   42 1
    18    7   12 ar
    19    7    8 ar
    20    8    9 ar
    21    8   29 1
    22    9   10 ar
    23    9   43 1
    24   10   11 ar
    25   10   27 1
    26   11   17 1
    27   11   12 ar
    28   12   13 1
    29   13   14 1
    30   14   15 1
    31   14   16 1
    32   14   19 1
    33   16   17 1
    34   16   44 1
    35   16   45 1
    36   17   18 2
    37   19   24 ar
    38   19   20 ar
    39   20   21 ar
    40   20   46 1
    41   21   22 ar
    42   21   47 1
    43   22   23 ar
    44   22   26 1
    45   23   24 ar
    46   23   48 1
    47   24   25 1
    48   25   49 1
    49   26   50 1
    50   27   28 1
    51   28   51 1
    52   28   52 1
    53   28   53 1
    54   29   54 1
    55   30   31 2
    56   30   32 1
    57   31   55 1
    58   31   56 1
    59   32   57 1
    60   32   58 1
    61   32   59 1
    62   33   60 1
    63   33   61 1
    64   33   62 1
@<TRIPOS>MOLECULE
CHEMBL490292
   36    38     0     0     0
SMALL
USER_CHARGES

@<TRIPOS>ATOM
      1 C1          0.1854    0.1374   -0.9717 C.3       1 <0>         0.0256
      2 O1          0.1347   -1.2483   -0.6262 O.3       1 <0>        -0.3159
      3 C2          0.7324   -1.6162    0.5380 C.ar      1 <0>         0.1364
      4 C3          1.3491   -0.6594    1.3322 C.ar      1 <0>        -0.2049
      5 C4          1.9561   -1.0289    2.5143 C.ar      1 <0>        -0.0553
      6 C5          1.9496   -2.3661    2.9113 C.ar      1 <0>        -0.0644
      7 C6          1.3288   -3.3248    2.1107 C.ar      1 <0>        -0.0534
      8 C7          0.7193   -2.9470    0.9325 C.ar      1 <0>        -0.1475
      9 C8          2.6009   -2.7670    4.1800 C.2       1 <0>        -0.2266
     10 C9          1.7497   -3.2135    5.1676 C.2       1 <0>         0.0795
     11 S1          2.7753   -3.6300    6.5775 S.3       1 <0>         0.0057
     12 S2          4.5977   -3.1293    5.7027 S.3       1 <0>        -0.0539
     13 C10         3.9847   -2.6455    4.2055 C.2       1 <0>         0.3952
     14 O2          4.6641   -2.2416    3.2739 O.2       1 <0>        -0.3923
     15 C11         0.2807   -3.3265    5.0812 C.ar      1 <0>        -0.0889
     16 C12        -0.3569   -4.5003    5.4907 C.ar      1 <0>        -0.0409
     17 C13        -1.7284   -4.6017    5.4084 C.ar      1 <0>        -0.1523
     18 C14        -2.4774   -3.5388    4.9191 C.ar      1 <0>         0.1597
     19 C15        -1.8474   -2.3700    4.5104 C.ar      1 <0>        -0.2089
     20 C16        -0.4768   -2.2579    4.5952 C.ar      1 <0>        -0.0217
     21 O3         -3.8291   -3.6429    4.8396 O.3       1 <0>        -0.3104
     22 C17        -4.5378   -2.5127    4.3271 C.3       1 <0>         0.0230
     23 H1          1.2252    0.4509   -1.0644 H         1 <0>         0.0573
     24 H2         -0.3273    0.2942   -1.9207 H         1 <0>         0.1018
     25 H3         -0.3030    0.7240   -0.1936 H         1 <0>         0.0563
     26 H4          1.3541    0.3757    1.0240 H         1 <0>         0.1319
     27 H5          2.4361   -0.2840    3.1316 H         1 <0>         0.1244
     28 H6          1.3222   -4.3611    2.4148 H         1 <0>         0.1291
     29 H7          0.2346   -3.6881    0.3142 H         1 <0>         0.1341
     30 H8          0.2246   -5.3272    5.8709 H         1 <0>         0.1392
     31 H9         -2.2220   -5.5089    5.7244 H         1 <0>         0.1423
     32 H10        -2.4333   -1.5463    4.1299 H         1 <0>         0.1376
     33 H11         0.0117   -1.3472    4.2817 H         1 <0>         0.1332
     34 H12        -5.6063   -2.7279    4.3171 H         1 <0>         0.1051
     35 H13        -4.3475   -1.6466    4.9609 H         1 <0>         0.0596
     36 H14        -4.2001   -2.3017    3.3124 H         1 <0>         0.0600
@<TRIPOS>BOND
     1    1    2 1
     2    1   23 1
     3    1   24 1
     4    1   25 1
     5    2    3 1
     6    3    8 ar
     7    3    4 ar
     8    4    5 ar
     9    4   26 1
    10    5    6 ar
    11    5   27 1
    12    6    7 ar
    13    6    9 1
    14    7    8 ar
    15    7   28 1
    16    8   29 1
    17    9   13 1
    18    9   10 2
    19   10   11 1
    20   10   15 1
    21   11   12 1
    22   12   13 1
    23   13   14 2
    24   15   20 ar
    25   15   16 ar
    26   16   17 ar
    27   16   30 1
    28   17   18 ar
    29   17   31 1
    30   18   19 ar
    31   18   21 1
    32   19   20 ar
    33   19   32 1
    34   20   33 1
    35   21   22 1
    36   22   34 1
    37   22   35 1
    38   22   36 1
@<TRIPOS>MOLECULE
CHEMBL243362
   62    63     0     0     0
SMALL
USER_CHARGES

@<TRIPOS>ATOM
      1 C1         -0.0197    1.4835    0.2229 C.3       1 <0>        -0.1183
      2 C2         -0.0009   -0.0200    0.1220 C.2       1 <0>        -0.1368
      3 C3          1.1296   -0.6484   -0.0856 C.2       1 <0>        -0.1600
      4 C4          2.4266    0.1189   -0.1001 C.3       1 <0>        -0.0861
      5 C5          3.3985   -0.5034    0.9044 C.3       1 <0>        -0.0373
      6 H1          2.9287   -0.5442    1.8871 H         1 <0>         0.0688
      7 C6          4.6675    0.3480    0.9807 C.3       1 <0>        -0.0615
      8 C7          5.5721   -0.1941    2.0572 C.ar      1 <0>        -0.1645
      9 C8          5.4535    0.2709    3.3608 C.ar      1 <0>         0.1781
     10 C9          6.2819   -0.2225    4.3602 C.ar      1 <0>        -0.2452
     11 C10         7.2328   -1.1821    4.0643 C.ar      1 <0>         0.1858
     12 C11         7.3592   -1.6574    2.7494 C.ar      1 <0>        -0.2159
     13 C12         6.5141   -1.1571    1.7458 C.ar      1 <0>         0.2035
     14 O1          6.6249   -1.6138    0.4730 O.3       1 <0>        -0.4758
     15 C13         8.3689   -2.6784    2.4255 C.2       1 <0>         0.4567
     16 O2          9.4603   -2.3425    1.9996 O.2       1 <0>        -0.4539
     17 C14         8.0717   -4.0530    2.6091 C.2       1 <0>        -0.2297
     18 C15         9.0319   -4.9849    2.4109 C.2       1 <0>         0.0029
     19 C16         8.7246   -6.4066    2.6007 C.ar      1 <0>        -0.1188
     20 C17         7.4363   -6.8033    2.9816 C.ar      1 <0>        -0.0624
     21 C18         7.1525   -8.1271    3.1578 C.ar      1 <0>        -0.1562
     22 C19         8.1373   -9.0908    2.9606 C.ar      1 <0>         0.1410
     23 C20         9.4189   -8.7158    2.5831 C.ar      1 <0>        -0.1786
     24 C21         9.7200   -7.3780    2.3956 C.ar      1 <0>         0.1535
     25 O3         10.9698   -7.0058    2.0211 O.3       1 <0>        -0.4905
     26 O4          7.8428  -10.4038    3.1388 O.3       1 <0>        -0.4963
     27 O5          8.0416   -1.6626    5.0420 O.3       1 <0>        -0.3086
     28 C22         7.8563   -1.1325    6.3561 C.3       1 <0>         0.0249
     29 O6          4.5231    1.2129    3.6593 O.3       1 <0>        -0.4899
     30 C23         3.7556   -1.8984    0.4599 C.2       1 <0>        -0.0900
     31 C24         3.4871   -2.9211    1.2333 C.2       1 <0>        -0.2084
     32 C25         4.4214   -2.1169   -0.8742 C.3       1 <0>        -0.1159
     33 C26        -1.2826   -0.8005    0.2600 C.3       1 <0>        -0.1178
     34 H2          0.4375    1.9132   -0.6684 H         1 <0>         0.0646
     35 H3         -1.0501    1.8293    0.3053 H         1 <0>         0.0589
     36 H4          0.5398    1.7955    1.1047 H         1 <0>         0.0657
     37 H5          1.1322   -1.7164   -0.2463 H         1 <0>         0.1078
     38 H6          2.8612    0.0788   -1.0989 H         1 <0>         0.0725
     39 H7          2.2376    1.1571    0.1725 H         1 <0>         0.0732
     40 H8          5.1845    0.3164    0.0217 H         1 <0>         0.0775
     41 H9          4.4002    1.3783    1.2156 H         1 <0>         0.0805
     42 H10         6.1836    0.1445    5.3712 H         1 <0>         0.1418
     43 H11         7.2468   -1.1124   -0.0720 H         1 <0>         0.3941
     44 H12         7.0788   -4.3557    2.9072 H         1 <0>         0.1311
     45 H13        10.0249   -4.6823    2.1128 H         1 <0>         0.1397
     46 H14         6.6669   -6.0614    3.1365 H         1 <0>         0.1384
     47 H15         6.1580   -8.4284    3.4522 H         1 <0>         0.1366
     48 H16        10.1796   -9.4674    2.4320 H         1 <0>         0.1408
     49 H17        11.5680   -6.8355    2.7615 H         1 <0>         0.3983
     50 H18         7.5253  -10.8475    2.3405 H         1 <0>         0.3976
     51 H19         8.5646   -1.6005    7.0398 H         1 <0>         0.1054
     52 H20         8.0238   -0.0556    6.3404 H         1 <0>         0.0604
     53 H21         6.8392   -1.3372    6.6904 H         1 <0>         0.0601
     54 H22         3.6652    0.8501    3.9191 H         1 <0>         0.3955
     55 H23         3.0099   -2.7645    2.1894 H         1 <0>         0.0878
     56 H24         3.7430   -3.9208    0.9148 H         1 <0>         0.0926
     57 H25         4.5630   -1.1571   -1.3712 H         1 <0>         0.0555
     58 H26         5.3897   -2.5941   -0.7232 H         1 <0>         0.0855
     59 H27         3.7932   -2.7574   -1.4932 H         1 <0>         0.0540
     60 H28        -1.7411   -0.9225   -0.7214 H         1 <0>         0.0643
     61 H29        -1.0670   -1.7810    0.6847 H         1 <0>         0.0608
     62 H30        -1.9667   -0.2627    0.9163 H         1 <0>         0.0622
@<TRIPOS>BOND
     1    1    2 1
     2    1   34 1
     3    1   35 1
     4    1   36 1
     5    2    3 2
     6    2   33 1
     7    3    4 1
     8    3   37 1
     9    4    5 1
    10    4   38 1
    11    4   39 1
    12    5    6 1
    13    5    7 1
    14    5   30 1
    15    7    8 1
    16    7   40 1
    17    7   41 1
    18    8   13 ar
    19    8    9 ar
    20    9   10 ar
    21    9   29 1
    22   10   11 ar
    23   10   42 1
    24   11   12 ar
    25   11   27 1
    26   12   13 ar
    27   12   15 1
    28   13   14 1
    29   14   43 1
    30   15   16 2
    31   15   17 1
    32   17   18 2
    33   17   44 1
    34   18   19 1
    35   18   45 1
    36   19   24 ar
    37   19   20 ar
    38   20   21 ar
    39   20   46 1
    40   21   22 ar
    41   21   47 1
    42   22   23 ar
    43   22   26 1
    44   23   24 ar
    45   23   48 1
    46   24   25 1
    47   25   49 1
    48   26   50 1
    49   27   28 1
    50   28   51 1
    51   28   52 1
    52   28   53 1
    53   29   54 1
    54   30   31 2
    55   30   32 1
    56   31   55 1
    57   31   56 1
    58   32   57 1
    59   32   58 1
    60   32   59 1
    61   33   60 1
    62   33   61 1
    63   33   62 1
@<TRIPOS>MOLECULE
CHEMBL47644
   33    33     0     0     0
SMALL
USER_CHARGES

@<TRIPOS>ATOM
      1 C1         -0.0180    1.4754    0.0102 C.2       1 <0>        -0.1416
      2 C2          1.2625    1.8810    0.0001 C.2       1 <0>        -0.1416
      3 C3          2.0977    0.6597   -0.0144 C.2       1 <0>         0.5383
      4 O1          3.3113    0.6294   -0.0258 O.2       1 <0>        -0.4536
      5 N1          1.2840   -0.4115   -0.0124 N.am      1 <0>        -0.5884
      6 C4          0.0021   -0.0041    0.0020 C.2       1 <0>         0.5383
      7 O2         -0.9729   -0.7274    0.0081 O.2       1 <0>        -0.4536
      8 C5          1.7262   -1.8081   -0.0251 C.3       1 <0>         0.1127
      9 C6          1.8949   -2.3028    1.4129 C.3       1 <0>        -0.1364
     10 C7          2.3567   -3.7613    1.3996 C.3       1 <0>        -0.1148
     11 C8          2.5254   -4.2560    2.8376 C.3       1 <0>        -0.1180
     12 C9          2.9872   -5.7145    2.8244 C.3       1 <0>        -0.1203
     13 C10         3.1559   -6.2092    4.2624 C.3       1 <0>        -0.0936
     14 C11         3.6177   -7.6677    4.2491 C.3       1 <0>        -0.1838
     15 C12         3.7838   -8.1549    5.6655 C.2       1 <0>         0.4871
     16 O3          3.5541   -7.4051    6.5990 O.co2     1 <0>        -0.7000
     17 O4          4.1479   -9.2990    5.8779 O.co2     1 <0>        -0.7099
     18 H1         -0.8936    2.1075    0.0259 H         1 <0>         0.1827
     19 H2          1.6147    2.9019    0.0022 H         1 <0>         0.1827
     20 H3          0.9823   -2.4202   -0.5350 H         1 <0>         0.0955
     21 H4          2.6791   -1.8828   -0.5491 H         1 <0>         0.0955
     22 H5          2.6388   -1.6907    1.9228 H         1 <0>         0.0689
     23 H6          0.9420   -2.2281    1.9369 H         1 <0>         0.0689
     24 H7          1.6128   -4.3734    0.8898 H         1 <0>         0.0648
     25 H8          3.3096   -3.8360    0.8756 H         1 <0>         0.0648
     26 H9          3.2693   -3.6439    3.3475 H         1 <0>         0.0611
     27 H10         1.5725   -4.1813    3.3616 H         1 <0>         0.0611
     28 H11         2.2433   -6.3266    2.3145 H         1 <0>         0.0550
     29 H12         3.9401   -5.7892    2.3004 H         1 <0>         0.0550
     30 H13         3.8998   -5.5971    4.7722 H         1 <0>         0.0573
     31 H14         2.2030   -6.1345    4.7864 H         1 <0>         0.0573
     32 H15         2.8738   -8.2798    3.7393 H         1 <0>         0.0543
     33 H16         4.5706   -7.7424    3.7251 H         1 <0>         0.0543
@<TRIPOS>BOND
     1    1    6 1
     2    1    2 2
     3    1   18 1
     4    2    3 1
     5    2   19 1
     6    3    4 2
     7    3    5 am
     8    5    6 am
     9    5    8 1
    10    6    7 2
    11    8    9 1
    12    8   20 1
    13    8   21 1
    14    9   10 1
    15    9   22 1
    16    9   23 1
    17   10   11 1
    18   10   24 1
    19   10   25 1
    20   11   12 1
    21   11   26 1
    22   11   27 1
    23   12   13 1
    24   12   28 1
    25   12   29 1
    26   13   14 1
    27   13   30 1
    28   13   31 1
    29   14   15 1
    30   14   32 1
    31   14   33 1
    32   15   16 2
    33   15   17 1
@<TRIPOS>MOLECULE
CHEMBL275188
   44    45     0     0     0
SMALL
USER_CHARGES

@<TRIPOS>ATOM
      1 C1         -0.0187    1.5258    0.0104 C.3       1 <0>        -0.1320
      2 C2          0.0021   -0.0041    0.0020 C.3       1 <0>        -0.0151
      3 C3          0.7421   -0.5109    1.2415 C.3       1 <0>        -0.1429
      4 C4         -1.4333   -0.5336    0.0129 C.3       1 <0>        -0.1431
      5 C5          0.7074   -0.4901   -1.2379 C.ar      1 <0>         0.1765
      6 C6          0.8510   -1.8537   -1.4785 C.ar      1 <0>         0.0303
      7 C7          1.5096   -2.2581   -2.6365 C.ar      1 <0>         0.1748
      8 N1          1.9749   -1.3411   -3.4658 N.ar      1 <0>        -0.4608
      9 C8          1.8204   -0.0480   -3.2052 C.ar      1 <0>         0.3950
     10 N2          1.1927    0.3724   -2.1130 N.ar      1 <0>        -0.4857
     11 C9          2.3550    0.9468   -4.1562 C.2       1 <0>         0.0547
     12 N3          2.9994    0.7673   -5.3024 N.2       1 <0>        -0.1928
     13 N4          3.3684    1.7810   -5.9604 N.2       1 <0>        -0.2995
     14 C10         3.1300    3.0119   -5.5384 C.2       1 <0>        -0.0476
     15 S1          2.3096    2.7324   -4.0925 S.3       1 <0>         0.2323
     16 S2          3.5546    4.5458   -6.2945 S.3       1 <0>         0.0559
     17 C11         4.4116    4.0616   -7.8182 C.3       1 <0>        -0.1505
     18 C12         1.6897   -3.7232   -2.9398 C.3       1 <0>        -0.0155
     19 C13         0.3189   -4.3940   -3.0480 C.3       1 <0>        -0.1424
     20 C14         2.4408   -3.8814   -4.2634 C.3       1 <0>        -0.1310
     21 C15         2.4925   -4.3817   -1.8160 C.3       1 <0>        -0.1425
     22 O1          0.3597   -2.7696   -0.6025 O.3       1 <0>        -0.4676
     23 H1          1.0039    1.9031    0.0027 H         1 <0>         0.0620
     24 H2         -0.5459    1.8868   -0.8726 H         1 <0>         0.0614
     25 H3         -0.5289    1.8773    0.9072 H         1 <0>         0.0605
     26 H4          0.2319   -0.1594    2.1383 H         1 <0>         0.0678
     27 H5          0.7568   -1.6008    1.2356 H         1 <0>         0.0765
     28 H6          1.7647   -0.1336    1.2338 H         1 <0>         0.0546
     29 H7         -1.9605   -0.1726   -0.8702 H         1 <0>         0.0577
     30 H8         -1.4185   -1.6235    0.0069 H         1 <0>         0.0603
     31 H9         -1.9435   -0.1821    0.9097 H         1 <0>         0.0739
     32 H10         5.2919    3.4698   -7.5675 H         1 <0>         0.0960
     33 H11         3.7405    3.4691   -8.4399 H         1 <0>         0.0959
     34 H12         4.7174    4.9550   -8.3626 H         1 <0>         0.1198
     35 H13        -0.2530   -3.9249   -3.8485 H         1 <0>         0.0575
     36 H14         0.4492   -5.4537   -3.2674 H         1 <0>         0.0737
     37 H15        -0.2162   -4.2813   -2.1050 H         1 <0>         0.0596
     38 H16         3.4174   -3.4035   -4.1863 H         1 <0>         0.0628
     39 H17         2.5711   -4.9411   -4.4828 H         1 <0>         0.0588
     40 H18         1.8689   -3.4123   -5.0639 H         1 <0>         0.0622
     41 H19         1.9575   -4.2690   -0.8731 H         1 <0>         0.0762
     42 H20         2.6228   -5.4414   -2.0354 H         1 <0>         0.0676
     43 H21         3.4691   -3.9038   -1.7390 H         1 <0>         0.0544
     44 H22        -0.5511   -3.0387   -0.7844 H         1 <0>         0.3903
@<TRIPOS>BOND
     1    1    2 1
     2    1   23 1
     3    1   24 1
     4    1   25 1
     5    2    3 1
     6    2    4 1
     7    2    5 1
     8    3   26 1
     9    3   27 1
    10    3   28 1
    11    4   29 1
    12    4   30 1
    13    4   31 1
    14    5   10 ar
    15    5    6 ar
    16    6    7 ar
    17    6   22 1
    18    7    8 ar
    19    7   18 1
    20    8    9 ar
    21    9   10 ar
    22    9   11 1
    23   11   15 1
    24   11   12 2
    25   12   13 1
    26   13   14 2
    27   14   15 1
    28   14   16 1
    29   16   17 1
    30   17   32 1
    31   17   33 1
    32   17   34 1
    33   18   19 1
    34   18   20 1
    35   18   21 1
    36   19   35 1
    37   19   36 1
    38   19   37 1
    39   20   38 1
    40   20   39 1
    41   20   40 1
    42   21   41 1
    43   21   42 1
    44   21   43 1
    45   22   44 1
@<TRIPOS>MOLECULE
CHEMBL404928
   29    30     0     0     0
SMALL
USER_CHARGES

@<TRIPOS>ATOM
      1 C1         -0.0225    1.8097    0.0120 C.3       1 <0>        -0.6520
      2 S1          0.0021   -0.0041    0.0020 S.o2      1 <0>         2.4914
      3 O1          0.8352   -0.4880    1.0465 O.2       1 <0>        -0.9360
      4 O2         -1.3147   -0.5105   -0.1678 O.2       1 <0>        -0.9217
      5 C2          0.8454   -0.4373   -1.4831 C.ar      1 <0>        -0.6402
      6 C3          2.0584   -1.0915   -1.4238 C.ar      1 <0>        -0.0202
      7 C4          2.7220   -1.4325   -2.5890 C.ar      1 <0>        -0.1272
      8 C5          2.1750   -1.1210   -3.8216 C.ar      1 <0>        -0.0637
      9 C6          0.9632   -0.4672   -3.8966 C.ar      1 <0>        -0.1109
     10 C7          0.2845   -0.1243   -2.7239 C.ar      1 <0>         0.1106
     11 C8         -0.9772    0.5495   -2.7937 C.1       1 <0>        -0.1323
     12 C9         -2.0115    1.1019   -2.8510 C.1       1 <0>        -0.0534
     13 C10        -3.2732    1.7757   -2.9208 C.ar      1 <0>         0.2178
     14 C11        -3.9395    2.1246   -1.7430 C.ar      1 <0>        -0.1440
     15 C12        -5.1567    2.7753   -1.8279 C.ar      1 <0>        -0.0725
     16 C13        -5.6717    3.0578   -3.0861 C.ar      1 <0>        -0.1594
     17 C14        -4.9600    2.6843   -4.2114 C.ar      1 <0>         0.1075
     18 N1         -3.7998    2.0698   -4.1057 N.ar      1 <0>        -0.4594
     19 H1          1.0001    2.1870    0.0043 H         1 <0>         0.1352
     20 H2         -0.5497    2.1708   -0.8711 H         1 <0>         0.1276
     21 H3         -0.5327    2.1613    0.9088 H         1 <0>         0.1365
     22 H4          2.4913   -1.3378   -0.4655 H         1 <0>         0.1529
     23 H5          3.6718   -1.9440   -2.5364 H         1 <0>         0.1397
     24 H6          2.6988   -1.3903   -4.7269 H         1 <0>         0.1396
     25 H7          0.5379   -0.2241   -4.8591 H         1 <0>         0.1390
     26 H8         -3.5101    1.8891   -0.7803 H         1 <0>         0.1414
     27 H9         -5.6952    3.0572   -0.9351 H         1 <0>         0.1443
     28 H10        -6.6203    3.5647   -3.1850 H         1 <0>         0.1433
     29 H11        -5.3593    2.9030   -5.1908 H         1 <0>         0.1662
@<TRIPOS>BOND
     1    1    2 1
     2    1   19 1
     3    1   20 1
     4    1   21 1
     5    2    3 2
     6    2    4 2
     7    2    5 1
     8    5   10 ar
     9    5    6 ar
    10    6    7 ar
    11    6   22 1
    12    7    8 ar
    13    7   23 1
    14    8    9 ar
    15    8   24 1
    16    9   10 ar
    17    9   25 1
    18   10   11 1
    19   11   12 3
    20   12   13 1
    21   13   18 ar
    22   13   14 ar
    23   14   15 ar
    24   14   26 1
    25   15   16 ar
    26   15   27 1
    27   16   17 ar
    28   16   28 1
    29   17   18 ar
    30   17   29 1
@<TRIPOS>MOLECULE
CHEMBL275809
   55    58     0     0     0
SMALL
USER_CHARGES

@<TRIPOS>ATOM
      1 C1         -0.8011    1.6349    0.6265 C.3       1 <0>         0.0245
      2 N1         -0.6557    0.1789    0.4967 N.3       1 <0>        -0.5440
      3 C2         -1.9683   -0.4782    0.4382 C.3       1 <0>         0.0405
      4 C3         -1.7777   -1.9655    0.1223 C.3       1 <0>         0.1162
      5 N2         -0.8402   -2.5349    1.1022 N.am      1 <0>        -0.5883
      6 C4          0.4437   -1.8501    1.3163 C.3       1 <0>         0.0878
      7 C5          0.1656   -0.3673    1.5852 C.3       1 <0>         0.0402
      8 C6         -1.1494   -3.6547    1.7855 C.2       1 <0>         0.6132
      9 O1         -2.2566   -4.1468    1.6778 O.2       1 <0>        -0.5220
     10 C7         -0.1477   -4.2819    2.6616 C.2       1 <0>         0.0260
     11 N3          1.1345   -3.9810    2.8140 N.2       1 <0>        -0.4458
     12 C8          1.9033   -4.6406    3.6439 C.2       1 <0>         0.1001
     13 C9          1.3457   -5.6915    4.3867 C.2       1 <0>        -0.1029
     14 S1         -0.3444   -5.6428    3.8037 S.3       1 <0>         0.1463
     15 C10         1.9765   -6.5850    5.3768 C.ar      1 <0>        -0.0595
     16 C11         2.7118   -6.0482    6.4369 C.ar      1 <0>        -0.0369
     17 C12         3.2992   -6.8865    7.3594 C.ar      1 <0>        -0.1483
     18 C13         3.1613   -8.2633    7.2366 C.ar      1 <0>         0.1481
     19 C14         2.4312   -8.8013    6.1845 C.ar      1 <0>        -0.2075
     20 C15         1.8355   -7.9704    5.2606 C.ar      1 <0>        -0.0514
     21 O2          3.7425   -9.0860    8.1481 O.3       1 <0>        -0.3126
     22 C16         3.5609  -10.4912    7.9623 C.3       1 <0>         0.0240
     23 C17         3.3338   -4.2840    3.7949 C.ar      1 <0>        -0.0631
     24 C18         4.2988   -5.2872    3.8804 C.ar      1 <0>        -0.0510
     25 C19         5.6291   -4.9519    4.0204 C.ar      1 <0>        -0.1496
     26 C20         6.0081   -3.6175    4.0761 C.ar      1 <0>         0.1390
     27 C21         5.0500   -2.6164    3.9917 C.ar      1 <0>        -0.2097
     28 C22         3.7185   -2.9445    3.8458 C.ar      1 <0>        -0.0457
     29 O3          7.3199   -3.2905    4.2141 O.3       1 <0>        -0.3157
     30 C23         7.6398   -1.8987    4.2645 C.3       1 <0>         0.0257
     31 H1          0.1826    2.1029    0.5907 H         1 <0>         0.0712
     32 H2         -1.4135    2.0133   -0.1919 H         1 <0>         0.0711
     33 H3         -1.2804    1.8688    1.5772 H         1 <0>         0.0262
     34 H4         -2.4712   -0.3721    1.3994 H         1 <0>         0.0405
     35 H5         -2.5724   -0.0151   -0.3419 H         1 <0>         0.0919
     36 H6         -2.7361   -2.4801    0.1906 H         1 <0>         0.1006
     37 H7         -1.3698   -2.0770   -0.8823 H         1 <0>         0.0829
     38 H8          0.9539   -2.2884    2.1740 H         1 <0>         0.1329
     39 H9          1.0651   -1.9506    0.4264 H         1 <0>         0.0788
     40 H10         1.1091    0.1761    1.6369 H         1 <0>         0.0893
     41 H11        -0.3670   -0.2628    2.5304 H         1 <0>         0.0373
     42 H12         2.8199   -4.9779    6.5329 H         1 <0>         0.1344
     43 H13         3.8681   -6.4726    8.1788 H         1 <0>         0.1388
     44 H14         2.3269   -9.8724    6.0927 H         1 <0>         0.1360
     45 H15         1.2641   -8.3894    4.4456 H         1 <0>         0.1303
     46 H16         4.0747  -11.0321    8.7570 H         1 <0>         0.1036
     47 H17         2.4971  -10.7271    7.9912 H         1 <0>         0.0585
     48 H18         3.9724  -10.7863    6.9971 H         1 <0>         0.0588
     49 H19         4.0046   -6.3254    3.8375 H         1 <0>         0.1300
     50 H20         6.3769   -5.7283    4.0871 H         1 <0>         0.1342
     51 H21         5.3482   -1.5793    4.0357 H         1 <0>         0.1317
     52 H22         2.9742   -2.1652    3.7754 H         1 <0>         0.1274
     53 H23         7.3133   -1.4173    3.3427 H         1 <0>         0.0572
     54 H24         7.1327   -1.4399    5.1133 H         1 <0>         0.0570
     55 H25         8.7172   -1.7774    4.3759 H         1 <0>         0.1016
@<TRIPOS>BOND
     1    1    2 1
     2    1   31 1
     3    1   32 1
     4    1   33 1
     5    2    7 1
     6    2    3 1
     7    3    4 1
     8    3   34 1
     9    3   35 1
    10    4    5 1
    11    4   36 1
    12    4   37 1
    13    5    6 1
    14    5    8 am
    15    6    7 1
    16    6   38 1
    17    6   39 1
    18    7   40 1
    19    7   41 1
    20    8    9 2
    21    8   10 1
    22   10   14 1
    23   10   11 2
    24   11   12 1
    25   12   13 2
    26   12   23 1
    27   13   14 1
    28   13   15 1
    29   15   20 ar
    30   15   16 ar
    31   16   17 ar
    32   16   42 1
    33   17   18 ar
    34   17   43 1
    35   18   19 ar
    36   18   21 1
    37   19   20 ar
    38   19   44 1
    39   20   45 1
    40   21   22 1
    41   22   46 1
    42   22   47 1
    43   22   48 1
    44   23   28 ar
    45   23   24 ar
    46   24   25 ar
    47   24   49 1
    48   25   26 ar
    49   25   50 1
    50   26   27 ar
    51   26   29 1
    52   27   28 ar
    53   27   51 1
    54   28   52 1
    55   29   30 1
    56   30   53 1
    57   30   54 1
    58   30   55 1
@<TRIPOS>MOLECULE
CHEMBL275809__1
   56    59     0     0     0
SMALL
USER_CHARGES

@<TRIPOS>ATOM
      1 C1         -0.7986    1.6736    0.6612 C.3       1 <0>        -0.0471
      2 N1         -0.6552    0.2183    0.5214 N.4       1 <0>        -0.3869
      3 C2         -1.9827   -0.4082    0.5572 C.3       1 <0>        -0.0198
      4 C3         -1.8440   -1.9118    0.2970 C.3       1 <0>         0.0896
      5 N2         -0.8848   -2.4660    1.2649 N.am      1 <0>        -0.6152
      6 C4          0.4167   -1.7962    1.4123 C.3       1 <0>         0.0615
      7 C5          0.1712   -0.2981    1.6198 C.3       1 <0>        -0.0218
      8 C6         -1.1899   -3.5561    1.9963 C.2       1 <0>         0.6314
      9 O1         -2.3082   -4.0316    1.9419 O.2       1 <0>        -0.4944
     10 C7         -0.1704   -4.1710    2.8605 C.2       1 <0>        -0.0184
     11 N3          1.1208   -3.8872    2.9616 N.2       1 <0>        -0.4466
     12 C8          1.9056   -4.5320    3.7881 C.2       1 <0>         0.0951
     13 C9          1.3557   -5.5482    4.5832 C.2       1 <0>        -0.0748
     14 S1         -0.3515   -5.4899    4.0533 S.3       1 <0>         0.1782
     15 C10         2.0040   -6.4192    5.5821 C.ar      1 <0>        -0.0784
     16 C11         2.7873   -5.8607    6.5956 C.ar      1 <0>        -0.0324
     17 C12         3.3910   -6.6780    7.5264 C.ar      1 <0>        -0.1495
     18 C13         3.2218   -8.0551    7.4583 C.ar      1 <0>         0.1587
     19 C14         2.4440   -8.6146    6.4525 C.ar      1 <0>        -0.2081
     20 C15         1.8319   -7.8046    5.5208 C.ar      1 <0>        -0.0461
     21 O2          3.8191   -8.8571    8.3777 O.3       1 <0>        -0.3095
     22 C16         3.6035  -10.2638    8.2492 C.3       1 <0>         0.0223
     23 C17         3.3457   -4.1952    3.8811 C.ar      1 <0>        -0.0691
     24 C18         4.2967   -5.2113    3.9710 C.ar      1 <0>        -0.0485
     25 C19         5.6360   -4.8943    4.0569 C.ar      1 <0>        -0.1465
     26 C20         6.0381   -3.5655    4.0540 C.ar      1 <0>         0.1451
     27 C21         5.0940   -2.5515    3.9651 C.ar      1 <0>        -0.2123
     28 C22         3.7534   -2.8616    3.8731 C.ar      1 <0>        -0.0496
     29 O3          7.3587   -3.2566    4.1389 O.3       1 <0>        -0.3125
     30 C23         7.7024   -1.8696    4.1305 C.3       1 <0>         0.0254
     31 H1          0.1857    2.1406    0.6268 H         1 <0>         0.1256
     32 H2         -1.4119    2.0582   -0.1536 H         1 <0>         0.1259
     33 H3         -1.2759    1.9018    1.6142 H         1 <0>         0.1219
     34 H4         -2.4335   -0.2489    1.5367 H         1 <0>         0.1344
     35 H5         -2.6154    0.0367   -0.2109 H         1 <0>         0.1466
     36 H6         -2.8123   -2.3961    0.4226 H         1 <0>         0.1393
     37 H7         -1.4778   -2.0759   -0.7165 H         1 <0>         0.1004
     38 H8          0.9429   -2.2041    2.2752 H         1 <0>         0.1691
     39 H9          1.0111   -1.9486    0.5114 H         1 <0>         0.0975
     40 H10         1.1258    0.2280    1.6348 H         1 <0>         0.1446
     41 H11        -0.3447   -0.1421    2.5672 H         1 <0>         0.1321
     42 H12         2.9197   -4.7902    6.6491 H         1 <0>         0.1345
     43 H13         3.9968   -6.2473    8.3099 H         1 <0>         0.1416
     44 H14         2.3155   -9.6858    6.4031 H         1 <0>         0.1393
     45 H15         1.2235   -8.2401    4.7420 H         1 <0>         0.1309
     46 H16         2.5371  -10.4763    8.3240 H         1 <0>         0.0604
     47 H17         3.9742  -10.6013    7.2813 H         1 <0>         0.0606
     48 H18         4.1349  -10.7870    9.0443 H         1 <0>         0.1071
     49 H19         3.9846   -6.2452    3.9737 H         1 <0>         0.1316
     50 H20         6.3730   -5.6807    4.1270 H         1 <0>         0.1375
     51 H21         5.4101   -1.5188    3.9635 H         1 <0>         0.1320
     52 H22         3.0198   -2.0724    3.7991 H         1 <0>         0.1220
     53 H23         7.3542   -1.4145    3.2033 H         1 <0>         0.0564
     54 H24         7.2305   -1.3732    4.9785 H         1 <0>         0.0580
     55 H25         8.7848   -1.7630    4.2035 H         1 <0>         0.1049
     56 H26        -0.2106    0.0085   -0.3597 H         1 <0>         0.4258
@<TRIPOS>BOND
     1    1    2 1
     2    1   31 1
     3    1   32 1
     4    1   33 1
     5    2    7 1
     6    2    3 1
     7    2   56 1
     8    3    4 1
     9    3   34 1
    10    3   35 1
    11    4    5 1
    12    4   36 1
    13    4   37 1
    14    5    6 1
    15    5    8 am
    16    6    7 1
    17    6   38 1
    18    6   39 1
    19    7   40 1
    20    7   41 1
    21    8    9 2
    22    8   10 1
    23   10   14 1
    24   10   11 2
    25   11   12 1
    26   12   13 2
    27   12   23 1
    28   13   14 1
    29   13   15 1
    30   15   20 ar
    31   15   16 ar
    32   16   17 ar
    33   16   42 1
    34   17   18 ar
    35   17   43 1
    36   18   19 ar
    37   18   21 1
    38   19   20 ar
    39   19   44 1
    40   20   45 1
    41   21   22 1
    42   22   46 1
    43   22   47 1
    44   22   48 1
    45   23   28 ar
    46   23   24 ar
    47   24   25 ar
    48   24   49 1
    49   25   26 ar
    50   25   50 1
    51   26   27 ar
    52   26   29 1
    53   27   28 ar
    54   27   51 1
    55   28   52 1
    56   29   30 1
    57   30   53 1
    58   30   54 1
    59   30   55 1
@<TRIPOS>MOLECULE
CHEMBL15904
   55    56     0     0     0
SMALL
USER_CHARGES

@<TRIPOS>ATOM
      1 C1         -0.6985    1.1020   -0.6209 C.3       1 <0>        -0.1461
      2 C2         -0.9651   -0.3356   -1.0716 C.3       1 <0>        -0.0189
      3 C3         -0.6127   -1.2994    0.0632 C.3       1 <0>        -0.1401
      4 C4         -2.4439   -0.4911   -1.4321 C.3       1 <0>        -0.1397
      5 C5         -0.1182   -0.6491   -2.2780 C.ar      1 <0>        -0.0933
      6 C6          0.7294    0.3072   -2.7896 C.ar      1 <0>        -0.1075
      7 C7          1.5162    0.0143   -3.9106 C.ar      1 <0>        -0.0359
      8 C8          1.4356   -1.2514   -4.5050 C.ar      1 <0>        -0.0988
      9 C9          0.5845   -2.2000   -3.9852 C.ar      1 <0>        -0.0935
     10 C10        -0.1904   -1.9055   -2.8689 C.ar      1 <0>         0.1048
     11 O1         -1.0242   -2.8465   -2.3572 O.3       1 <0>        -0.4856
     12 C11         0.4965   -3.5623   -4.6236 C.3       1 <0>        -0.0186
     13 C12         1.4375   -3.6225   -5.8285 C.3       1 <0>        -0.1494
     14 C13         0.9026   -4.6298   -3.6055 C.3       1 <0>        -0.1401
     15 C14        -0.9397   -3.8175   -5.0849 C.3       1 <0>        -0.1393
     16 C15         2.4219    1.0304   -4.4610 C.2       1 <0>        -0.1435
     17 C16         3.7100    0.7095   -4.7441 C.2       1 <0>         0.0521
     18 C17         4.7009    1.5225   -5.4730 C.2       1 <0>         0.5183
     19 O2          4.5287    2.6328   -5.9499 O.2       1 <0>        -0.5342
     20 N1          5.8288    0.7984   -5.5072 N.2       1 <0>        -0.6972
     21 C18         5.6563   -0.3512   -4.8941 C.2       1 <0>         0.6047
     22 N2          4.3929   -0.4633   -4.4035 N.pl3     1 <0>        -0.5577
     23 C19         3.8475   -1.6013   -3.6594 C.3       1 <0>         0.1056
     24 N3          6.6279   -1.3129   -4.7615 N.2       1 <0>        -0.6838
     25 C20         7.8636   -1.1306   -5.3478 C.2       1 <0>         0.6204
     26 N4          8.9235   -1.6662   -4.8131 N.2       1 <0>        -0.8499
     27 N5          7.9759   -0.3837   -6.4964 N.pl3     1 <0>        -0.8598
     28 H1          0.3550    1.2128   -0.3641 H         1 <0>         0.0592
     29 H2         -0.9495    1.7887   -1.4294 H         1 <0>         0.0582
     30 H3         -1.3110    1.3288    0.2517 H         1 <0>         0.0553
     31 H4         -1.2252   -1.0727    0.9359 H         1 <0>         0.0498
     32 H5         -0.8027   -2.3236   -0.2578 H         1 <0>         0.0744
     33 H6          0.4408   -1.1886    0.3201 H         1 <0>         0.0508
     34 H7         -2.6949    0.1956   -2.2405 H         1 <0>         0.0533
     35 H8         -2.6338   -1.5153   -1.7531 H         1 <0>         0.0574
     36 H9         -3.0564   -0.2644   -0.5594 H         1 <0>         0.0563
     37 H10         0.7875    1.2816   -2.3275 H         1 <0>         0.1292
     38 H11         2.0398   -1.4824   -5.3699 H         1 <0>         0.1293
     39 H12        -1.9131   -2.8333   -2.7379 H         1 <0>         0.3749
     40 H13         2.4690   -3.5281   -5.4890 H         1 <0>         0.0613
     41 H14         1.3098   -4.5755   -6.3420 H         1 <0>         0.0572
     42 H15         1.2042   -2.8069   -6.5129 H         1 <0>         0.0574
     43 H16         0.2322   -4.5869   -2.7471 H         1 <0>         0.0734
     44 H17         0.8390   -5.6151   -4.0673 H         1 <0>         0.0510
     45 H18         1.9258   -4.4479   -3.2769 H         1 <0>         0.0527
     46 H19        -1.2290   -3.0570   -5.8102 H         1 <0>         0.0527
     47 H20        -1.0033   -4.8028   -5.5467 H         1 <0>         0.0569
     48 H21        -1.6101   -3.7746   -4.2265 H         1 <0>         0.0571
     49 H22         2.0631    2.0331   -4.6406 H         1 <0>         0.1435
     50 H23         3.3709   -2.2941   -4.3529 H         1 <0>         0.0589
     51 H24         4.6543   -2.1114   -3.1331 H         1 <0>         0.0772
     52 H25         3.1117   -1.2450   -2.9385 H         1 <0>         0.0673
     53 H26         7.1865    0.0152   -6.8946 H         1 <0>         0.4060
     54 H27         8.8446   -0.2556   -6.9086 H         1 <0>         0.3810
     55 H28         8.8358   -2.2527   -4.0454 H         1 <0>         0.3254
@<TRIPOS>BOND
     1    1    2 1
     2    1   28 1
     3    1   29 1
     4    1   30 1
     5    2    3 1
     6    2    4 1
     7    2    5 1
     8    3   31 1
     9    3   32 1
    10    3   33 1
    11    4   34 1
    12    4   35 1
    13    4   36 1
    14    5   10 ar
    15    5    6 ar
    16    6    7 ar
    17    6   37 1
    18    7    8 ar
    19    7   16 1
    20    8    9 ar
    21    8   38 1
    22    9   10 ar
    23    9   12 1
    24   10   11 1
    25   11   39 1
    26   12   13 1
    27   12   14 1
    28   12   15 1
    29   13   40 1
    30   13   41 1
    31   13   42 1
    32   14   43 1
    33   14   44 1
    34   14   45 1
    35   15   46 1
    36   15   47 1
    37   15   48 1
    38   16   17 2
    39   16   49 1
    40   17   22 1
    41   17   18 1
    42   18   19 2
    43   18   20 1
    44   20   21 2
    45   21   22 1
    46   21   24 1
    47   22   23 1
    48   23   50 1
    49   23   51 1
    50   23   52 1
    51   24   25 1
    52   25   26 2
    53   25   27 1
    54   26   55 1
    55   27   53 1
    56   27   54 1
@<TRIPOS>MOLECULE
CHEMBL15904__1
   56    57     0     0     0
SMALL
USER_CHARGES

@<TRIPOS>ATOM
      1 C1         -1.6512   -1.1297   -3.5830 C.3       1 <0>        -0.1476
      2 C2         -1.3965   -2.6383   -3.5754 C.3       1 <0>        -0.0207
      3 C3         -1.0350   -3.0874   -2.1582 C.3       1 <0>        -0.1415
      4 C4         -2.6581   -3.3709   -4.0363 C.3       1 <0>        -0.1421
      5 C5         -0.2589   -2.9603   -4.5099 C.ar      1 <0>        -0.0915
      6 C6          0.3711   -1.9490   -5.1995 C.ar      1 <0>        -0.0933
      7 C7          1.4280   -2.2497   -6.0675 C.ar      1 <0>        -0.0734
      8 C8          1.8381   -3.5788   -6.2290 C.ar      1 <0>        -0.0931
      9 C9          1.2011   -4.5823   -5.5344 C.ar      1 <0>        -0.0952
     10 C10         0.1561   -4.2774   -4.6697 C.ar      1 <0>         0.1246
     11 O1         -0.4647   -5.2702   -3.9827 O.3       1 <0>        -0.4847
     12 C11         1.6413   -6.0132   -5.7071 C.3       1 <0>        -0.0199
     13 C12         2.8019   -6.0731   -6.7023 C.3       1 <0>        -0.1486
     14 C13         2.0968   -6.5730   -4.3581 C.3       1 <0>        -0.1415
     15 C14         0.4722   -6.8461   -6.2364 C.3       1 <0>        -0.1420
     16 C15         2.1035   -1.1750   -6.8061 C.2       1 <0>        -0.0543
     17 C16         3.4585   -1.1152   -6.8284 C.2       1 <0>        -0.0005
     18 C17         4.3064   -0.2535   -7.6738 C.2       1 <0>         0.5292
     19 O2          3.9257    0.5584   -8.5026 O.2       1 <0>        -0.4838
     20 N1          5.5734   -0.5354   -7.3538 N.2       1 <0>        -0.6798
     21 C18         5.6176   -1.4656   -6.4142 C.2       1 <0>         0.6377
     22 N2          4.3571   -1.8528   -6.0504 N.pl3     1 <0>        -0.5364
     23 C19         4.0129   -2.8543   -5.0381 C.3       1 <0>         0.0925
     24 N3          6.7470   -1.9591   -5.8853 N.2       1 <0>        -0.6342
     25 C20         7.9153   -1.4279   -6.2069 C.2       1 <0>         0.7153
     26 N4          7.9637   -0.2892   -6.9579 N.pl3     1 <0>        -0.8405
     27 N5          9.0722   -2.0187   -5.7877 N.pl3     1 <0>        -0.8143
     28 H1         -0.7524   -0.6078   -3.2546 H         1 <0>         0.0584
     29 H2         -1.9088   -0.8098   -4.5926 H         1 <0>         0.0588
     30 H3         -2.4740   -0.8968   -2.9071 H         1 <0>         0.0598
     31 H4         -1.8578   -2.8545   -1.4823 H         1 <0>         0.0543
     32 H5         -0.8534   -4.1621   -2.1528 H         1 <0>         0.0751
     33 H6         -0.1361   -2.5654   -1.8298 H         1 <0>         0.0505
     34 H7         -2.9156   -3.0510   -5.0460 H         1 <0>         0.0547
     35 H8         -2.4766   -4.4457   -4.0309 H         1 <0>         0.0579
     36 H9         -3.4809   -3.1380   -3.3604 H         1 <0>         0.0608
     37 H10         0.0505   -0.9257   -5.0715 H         1 <0>         0.1341
     38 H11         2.6525   -3.8163   -6.8974 H         1 <0>         0.1299
     39 H12        -1.2187   -5.6582   -4.4475 H         1 <0>         0.3825
     40 H13         3.6648   -5.5534   -6.2858 H         1 <0>         0.0571
     41 H14         3.0625   -7.1139   -6.8943 H         1 <0>         0.0614
     42 H15         2.5053   -5.5946   -7.6357 H         1 <0>         0.0574
     43 H16         1.2700   -6.5303   -3.6491 H         1 <0>         0.0760
     44 H17         2.4153   -7.6079   -4.4830 H         1 <0>         0.0546
     45 H18         2.9298   -5.9796   -3.9810 H         1 <0>         0.0509
     46 H19         0.1476   -6.4473   -7.1975 H         1 <0>         0.0543
     47 H20         0.7906   -7.8810   -6.3614 H         1 <0>         0.0610
     48 H21        -0.3547   -6.8034   -5.5275 H         1 <0>         0.0584
     49 H22         1.5215   -0.4324   -7.3316 H         1 <0>         0.1552
     50 H23         3.9074   -3.8296   -5.5132 H         1 <0>         0.0717
     51 H24         4.8025   -2.8990   -4.2880 H         1 <0>         0.0844
     52 H25         3.0727   -2.5794   -4.5600 H         1 <0>         0.0818
     53 H26         7.2266    0.3408   -6.9316 H         1 <0>         0.4350
     54 H27         9.0378   -2.8280   -5.2540 H         1 <0>         0.4265
     55 H28         9.9287   -1.6293   -6.0235 H         1 <0>         0.4171
     56 H29         8.7352   -0.1099   -7.5178 H         1 <0>         0.3999
@<TRIPOS>BOND
     1    1    2 1
     2    1   28 1
     3    1   29 1
     4    1   30 1
     5    2    3 1
     6    2    4 1
     7    2    5 1
     8    3   31 1
     9    3   32 1
    10    3   33 1
    11    4   34 1
    12    4   35 1
    13    4   36 1
    14    5   10 ar
    15    5    6 ar
    16    6    7 ar
    17    6   37 1
    18    7    8 ar
    19    7   16 1
    20    8    9 ar
    21    8   38 1
    22    9   10 ar
    23    9   12 1
    24   10   11 1
    25   11   39 1
    26   12   13 1
    27   12   14 1
    28   12   15 1
    29   13   40 1
    30   13   41 1
    31   13   42 1
    32   14   43 1
    33   14   44 1
    34   14   45 1
    35   15   46 1
    36   15   47 1
    37   15   48 1
    38   16   17 2
    39   16   49 1
    40   17   22 1
    41   17   18 1
    42   18   19 2
    43   18   20 1
    44   20   21 2
    45   21   22 1
    46   21   24 1
    47   22   23 1
    48   23   50 1
    49   23   51 1
    50   23   52 1
    51   24   25 2
    52   25   26 1
    53   25   27 1
    54   26   53 1
    55   26   56 1
    56   27   54 1
    57   27   55 1
@<TRIPOS>MOLECULE
CHEMBL365497
   50    53     0     0     0
SMALL
USER_CHARGES

@<TRIPOS>ATOM
      1 C1          0.3383    0.8586   -0.6555 C.3       1 <0>         0.0222
      2 O1          0.2422   -0.5576   -0.4899 O.3       1 <0>        -0.3097
      3 C2         -1.0056   -1.0828   -0.3865 C.ar      1 <0>         0.1617
      4 C3         -2.1156   -0.2490   -0.4492 C.ar      1 <0>        -0.2140
      5 C4         -3.3832   -0.7774   -0.3443 C.ar      1 <0>        -0.0299
      6 C5         -3.5522   -2.1548   -0.1748 C.ar      1 <0>        -0.1226
      7 C6         -2.4327   -2.9898   -0.1127 C.ar      1 <0>        -0.0359
      8 C7         -1.1690   -2.4532   -0.2238 C.ar      1 <0>        -0.1547
      9 C8         -4.9073   -2.7251   -0.0615 C.2       1 <0>         0.2196
     10 C9         -5.0544   -4.0696    0.1089 C.2       1 <0>        -0.2420
     11 C10        -6.3439   -4.6236    0.2182 C.2       1 <0>         0.0844
     12 C11        -7.4508   -3.7662    0.1476 C.2       1 <0>        -0.1948
     13 C12        -7.2280   -2.3823   -0.0301 C.2       1 <0>         0.5107
     14 O2         -8.1745   -1.6169   -0.0940 O.2       1 <0>        -0.4567
     15 O3         -5.9739   -1.9079   -0.1229 O.3       1 <0>        -0.2569
     16 C13        -8.8259   -4.3003    0.2566 C.ar      1 <0>        -0.0752
     17 C14        -9.6284   -3.9807    1.3583 C.ar      1 <0>        -0.0490
     18 C15       -10.9073   -4.5057    1.4123 C.ar      1 <0>        -0.1682
     19 C16       -11.3483   -5.3218    0.3859 C.ar      1 <0>         0.1025
     20 N1        -10.5699   -5.6061   -0.6404 N.ar      1 <0>        -0.4799
     21 C17        -9.3472   -5.1265   -0.7399 C.ar      1 <0>         0.1210
     22 C18        -6.5272   -6.0808    0.4031 C.ar      1 <0>        -0.0102
     23 C19        -7.0639   -6.5739    1.5930 C.ar      1 <0>        -0.1103
     24 C20        -7.2322   -7.9331    1.7592 C.ar      1 <0>        -0.0192
     25 C21        -6.8696   -8.8067    0.7494 C.ar      1 <0>        -0.6503
     26 C22        -6.3369   -8.3240   -0.4328 C.ar      1 <0>        -0.0184
     27 C23        -6.1693   -6.9666   -0.6138 C.ar      1 <0>        -0.1163
     28 S1         -7.0867  -10.5413    0.9701 S.o2      1 <0>         2.4974
     29 O4         -6.1165  -11.1390    0.1211 O.2       1 <0>        -0.9345
     30 O5         -7.0373  -10.7368    2.3767 O.2       1 <0>        -0.9351
     31 C24        -8.7563  -10.8848    0.3498 C.3       1 <0>        -0.6489
     32 H1          1.3875    1.1459   -0.7248 H         1 <0>         0.1062
     33 H2         -0.1803    1.1537   -1.5676 H         1 <0>         0.0608
     34 H3         -0.1190    1.3562    0.1997 H         1 <0>         0.0607
     35 H4         -1.9840    0.8149   -0.5802 H         1 <0>         0.1394
     36 H5         -4.2452   -0.1286   -0.3925 H         1 <0>         0.1401
     37 H6         -2.5586   -4.0544    0.0181 H         1 <0>         0.1429
     38 H7         -0.3037   -3.0980   -0.1803 H         1 <0>         0.1443
     39 H8         -4.1845   -4.7076    0.1596 H         1 <0>         0.1635
     40 H9         -9.2584   -3.3412    2.1460 H         1 <0>         0.1336
     41 H10       -11.5545   -4.2810    2.2472 H         1 <0>         0.1396
     42 H11       -12.3461   -5.7332    0.4257 H         1 <0>         0.1584
     43 H12        -8.7416   -5.3782   -1.5979 H         1 <0>         0.1517
     44 H13        -7.3466   -5.8931    2.3822 H         1 <0>         0.1348
     45 H14        -7.6475   -8.3161    2.6797 H         1 <0>         0.1473
     46 H15        -6.0555   -9.0111   -1.2171 H         1 <0>         0.1494
     47 H16        -5.7576   -6.5907   -1.5388 H         1 <0>         0.1401
     48 H17        -8.8192  -10.6010   -0.7008 H         1 <0>         0.1332
     49 H18        -8.9702  -11.9487    0.4522 H         1 <0>         0.1350
     50 H19        -9.4829  -10.3111    0.9252 H         1 <0>         0.1320
@<TRIPOS>BOND
     1    1    2 1
     2    1   32 1
     3    1   33 1
     4    1   34 1
     5    2    3 1
     6    3    8 ar
     7    3    4 ar
     8    4    5 ar
     9    4   35 1
    10    5    6 ar
    11    5   36 1
    12    6    7 ar
    13    6    9 1
    14    7    8 ar
    15    7   37 1
    16    8   38 1
    17    9   15 1
    18    9   10 2
    19   10   11 1
    20   10   39 1
    21   11   12 2
    22   11   22 1
    23   12   13 1
    24   12   16 1
    25   13   14 2
    26   13   15 1
    27   16   21 ar
    28   16   17 ar
    29   17   18 ar
    30   17   40 1
    31   18   19 ar
    32   18   41 1
    33   19   20 ar
    34   19   42 1
    35   20   21 ar
    36   21   43 1
    37   22   27 ar
    38   22   23 ar
    39   23   24 ar
    40   23   44 1
    41   24   25 ar
    42   24   45 1
    43   25   26 ar
    44   25   28 1
    45   26   27 ar
    46   26   46 1
    47   27   47 1
    48   28   29 2
    49   28   30 2
    50   28   31 1
    51   31   48 1
    52   31   49 1
    53   31   50 1
@<TRIPOS>MOLECULE
CHEMBL298672
   32    34     0     0     0
SMALL
USER_CHARGES

@<TRIPOS>ATOM
      1 C1         -0.0141    1.3754   -0.1060 C.ar      1 <0>        -0.1146
      2 C2          0.4709    0.9222    1.1093 C.ar      1 <0>        -0.1107
      3 C3          1.6799    0.2571    1.1749 C.ar      1 <0>        -0.1178
      4 C4          2.4171    0.0391    0.0198 C.ar      1 <0>         0.1689
      5 C5          1.9287    0.4969   -1.2127 C.ar      1 <0>         0.0159
      6 C6          0.7057    1.1673   -1.2641 C.ar      1 <0>        -0.0940
      7 C7          2.7041    0.2713   -2.4485 C.2       1 <0>         0.1053
      8 N1          3.8135   -0.4196   -2.5538 N.2       1 <0>        -0.2390
      9 N2          4.2115   -0.4059   -3.7771 N.2       1 <0>        -0.3400
     10 C8          3.3714    0.2949   -4.5022 C.2       1 <0>         0.3413
     11 S1          3.4912    0.5998   -6.2335 S.3       1 <0>        -0.7255
     12 O1          2.3981    0.7341   -3.6810 O.3       1 <0>        -0.2389
     13 N3          3.6379   -0.6316    0.0840 N.pl3     1 <0>        -0.6827
     14 C9          4.8339    0.0843   -0.0088 C.ar      1 <0>         0.2460
     15 C10         4.8137    1.4735   -0.0344 C.ar      1 <0>        -0.1577
     16 C11         5.9978    2.1779   -0.1257 C.ar      1 <0>        -0.0768
     17 C12         7.2029    1.5024   -0.1916 C.ar      1 <0>        -0.1336
     18 C13         7.2266    0.1201   -0.1667 C.ar      1 <0>        -0.1373
     19 C14         6.0464   -0.5908   -0.0698 C.ar      1 <0>        -0.1259
     20 C15         8.5421   -0.6115   -0.2392 C.3       1 <0>         0.5085
     21 F1          9.5868    0.3150   -0.3256 F         1 <0>        -0.1800
     22 F2          8.7053   -1.3925    0.9099 F         1 <0>        -0.1815
     23 F3          8.5555   -1.4361   -1.3693 F         1 <0>        -0.1725
     24 H1         -0.9625    1.8904   -0.1478 H         1 <0>         0.1291
     25 H2         -0.0993    1.0899    2.0111 H         1 <0>         0.1278
     26 H3          2.0519   -0.0932    2.1264 H         1 <0>         0.1315
     27 H4          0.3231    1.5224   -2.2096 H         1 <0>         0.1328
     28 H5          3.6567   -1.5953    0.1931 H         1 <0>         0.4107
     29 H6          3.8730    2.0015    0.0166 H         1 <0>         0.1227
     30 H7          5.9828    3.2576   -0.1461 H         1 <0>         0.1284
     31 H8          8.1276    2.0559   -0.2629 H         1 <0>         0.1304
     32 H9          6.0659   -1.6703   -0.0455 H         1 <0>         0.1294
@<TRIPOS>BOND
     1    1    6 ar
     2    1    2 ar
     3    1   24 1
     4    2    3 ar
     5    2   25 1
     6    3    4 ar
     7    3   26 1
     8    4    5 ar
     9    4   13 1
    10    5    6 ar
    11    5    7 1
    12    6   27 1
    13    7   12 1
    14    7    8 2
    15    8    9 1
    16    9   10 2
    17   10   11 1
    18   10   12 1
    19   13   14 1
    20   13   28 1
    21   14   19 ar
    22   14   15 ar
    23   15   16 ar
    24   15   29 1
    25   16   17 ar
    26   16   30 1
    27   17   18 ar
    28   17   31 1
    29   18   19 ar
    30   18   20 1
    31   19   32 1
    32   20   21 1
    33   20   22 1
    34   20   23 1
@<TRIPOS>MOLECULE
CHEMBL417073
   44    45     0     0     0
SMALL
USER_CHARGES

@<TRIPOS>ATOM
      1 C1         -0.0187    1.5258    0.0104 C.3       1 <0>        -0.1493
      2 C2          0.0021   -0.0041    0.0020 C.3       1 <0>        -0.0203
      3 C3          0.7421   -0.5109    1.2415 C.3       1 <0>        -0.1423
      4 C4         -1.4333   -0.5336    0.0129 C.3       1 <0>        -0.1425
      5 C5          0.7074   -0.4901   -1.2379 C.ar      1 <0>        -0.0898
      6 C6          1.2151    0.4185   -2.1419 C.ar      1 <0>        -0.0681
      7 C7          1.8683   -0.0327   -3.2901 C.ar      1 <0>        -0.0067
      8 C8          2.0047   -1.4033   -3.5180 C.ar      1 <0>        -0.0887
      9 C9          1.4943   -2.3054   -2.6091 C.ar      1 <0>        -0.0892
     10 C10         0.8502   -1.8524   -1.4654 C.ar      1 <0>         0.1344
     11 O1          0.3534   -2.7448   -0.5692 O.3       1 <0>        -0.4833
     12 C11         1.6410   -3.7851   -2.8541 C.3       1 <0>        -0.0203
     13 C12         2.3880   -4.0126   -4.1698 C.3       1 <0>        -0.1489
     14 C13         2.4287   -4.4167   -1.7046 C.3       1 <0>        -0.1426
     15 C14         0.2552   -4.4282   -2.9366 C.3       1 <0>        -0.1425
     16 C15         2.4137    0.9380   -4.2622 C.2       1 <0>         0.0805
     17 N1          2.4008    2.2645   -4.2409 N.2       1 <0>        -0.2326
     18 N2          2.9191    2.9512   -5.1632 N.2       1 <0>        -0.3512
     19 C16         3.5085    2.3875   -6.2104 C.2       1 <0>         0.3326
     20 S1          3.2868    0.6588   -5.8002 S.3       1 <0>        -0.0335
     21 N3          4.1242    2.9708   -7.3065 N.pl3     1 <0>        -0.7823
     22 H1          1.0039    1.9031    0.0027 H         1 <0>         0.0606
     23 H2         -0.5459    1.8868   -0.8726 H         1 <0>         0.0599
     24 H3         -0.5289    1.8773    0.9072 H         1 <0>         0.0607
     25 H4          0.2319   -0.1594    2.1383 H         1 <0>         0.0555
     26 H5          0.7568   -1.6008    1.2356 H         1 <0>         0.0752
     27 H6          1.7647   -0.1336    1.2338 H         1 <0>         0.0521
     28 H7         -1.9605   -0.1726   -0.8702 H         1 <0>         0.0553
     29 H8         -1.4185   -1.6235    0.0069 H         1 <0>         0.0581
     30 H9         -1.9435   -0.1821    0.9097 H         1 <0>         0.0621
     31 H10         1.1072    1.4780   -1.9622 H         1 <0>         0.1442
     32 H11         2.5091   -1.7563   -4.4053 H         1 <0>         0.1327
     33 H12        -0.5596   -3.0111   -0.7442 H         1 <0>         0.3847
     34 H13         3.3753   -3.5544   -4.1111 H         1 <0>         0.0587
     35 H14         2.4941   -5.0828   -4.3470 H         1 <0>         0.0618
     36 H15         1.8268   -3.5626   -4.9888 H         1 <0>         0.0580
     37 H16         1.8966   -4.2546   -0.7673 H         1 <0>         0.0764
     38 H17         2.5348   -5.4870   -1.8818 H         1 <0>         0.0555
     39 H18         3.4160   -3.9585   -1.6458 H         1 <0>         0.0518
     40 H19        -0.3060   -3.9782   -3.7556 H         1 <0>         0.0552
     41 H20         0.3613   -5.4985   -3.1138 H         1 <0>         0.0621
     42 H21        -0.2770   -4.2661   -1.9993 H         1 <0>         0.0588
     43 H22         4.1661    3.9369   -7.3821 H         1 <0>         0.4235
     44 H23         4.5132    2.4128   -7.9981 H         1 <0>         0.4240
@<TRIPOS>BOND
     1    1    2 1
     2    1   22 1
     3    1   23 1
     4    1   24 1
     5    2    3 1
     6    2    4 1
     7    2    5 1
     8    3   25 1
     9    3   26 1
    10    3   27 1
    11    4   28 1
    12    4   29 1
    13    4   30 1
    14    5   10 ar
    15    5    6 ar
    16    6    7 ar
    17    6   31 1
    18    7    8 ar
    19    7   16 1
    20    8    9 ar
    21    8   32 1
    22    9   10 ar
    23    9   12 1
    24   10   11 1
    25   11   33 1
    26   12   13 1
    27   12   14 1
    28   12   15 1
    29   13   34 1
    30   13   35 1
    31   13   36 1
    32   14   37 1
    33   14   38 1
    34   14   39 1
    35   15   40 1
    36   15   41 1
    37   15   42 1
    38   16   20 1
    39   16   17 2
    40   17   18 1
    41   18   19 2
    42   19   20 1
    43   19   21 1
    44   21   43 1
    45   21   44 1
@<TRIPOS>MOLECULE
CHEMBL304489
   60    62     0     0     0
SMALL
USER_CHARGES

@<TRIPOS>ATOM
      1 C1         -0.5287    1.5133   -0.3216 C.3       1 <0>        -0.1493
      2 C2         -0.3665   -0.0052   -0.2289 C.3       1 <0>        -0.0267
      3 C3          0.2724   -0.3689    1.1129 C.3       1 <0>        -0.1450
      4 C4         -1.7392   -0.6723   -0.3376 C.3       1 <0>        -0.1419
      5 C5          0.5159   -0.4857   -1.3521 C.ar      1 <0>        -0.0778
      6 C6          1.0365    0.4183   -2.2533 C.ar      1 <0>        -0.1290
      7 C7          1.8537   -0.0277   -3.2933 C.ar      1 <0>        -0.1145
      8 C8          2.1404   -1.3881   -3.4164 C.ar      1 <0>        -0.0763
      9 C9          1.6160   -2.2859   -2.5112 C.ar      1 <0>        -0.0912
     10 C10         0.8081   -1.8376   -1.4746 C.ar      1 <0>         0.1398
     11 O1          0.2976   -2.7248   -0.5811 O.3       1 <0>        -0.4818
     12 C11         1.9246   -3.7550   -2.6434 C.3       1 <0>        -0.0217
     13 C12         2.8326   -3.9784   -3.8544 C.3       1 <0>        -0.1489
     14 C13         2.6326   -4.2434   -1.3781 C.3       1 <0>        -0.1442
     15 C14         0.6218   -4.5348   -2.8320 C.3       1 <0>        -0.1427
     16 C15         2.4134    0.9379   -4.2618 C.2       1 <0>         0.1027
     17 C16         2.7398    2.1605   -3.8658 C.2       1 <0>        -0.6950
     18 C17         3.2086    3.3461   -4.6993 C.3       1 <0>        -0.0951
     19 C18         4.1264    4.1992   -3.8214 C.3       1 <0>         0.0692
     20 N1          3.6829    4.2130   -2.4217 N.pl3     1 <0>        -0.9347
     21 S1          2.7366    2.8460   -2.2214 S.o2      1 <0>         2.6405
     22 O2          1.4120    3.2789   -1.9435 O.2       1 <0>        -0.9421
     23 O3          3.4569    1.9503   -1.3858 O.2       1 <0>        -0.9314
     24 C19         3.9851    5.1746   -1.4538 C.ar      1 <0>         0.2140
     25 C20         5.1348    5.9448   -1.5733 C.ar      1 <0>        -0.1389
     26 C21         5.4308    6.8947   -0.6155 C.ar      1 <0>        -0.0731
     27 C22         4.5833    7.0793    0.4628 C.ar      1 <0>        -0.0624
     28 C23         3.4372    6.3135    0.5844 C.ar      1 <0>        -0.0653
     29 C24         3.1334    5.3660   -0.3735 C.ar      1 <0>        -0.1658
     30 Cl1         4.9590    8.2736    1.6654 Cl        1 <0>        -0.0646
     31 H1          0.4492    1.9886   -0.2441 H         1 <0>         0.0605
     32 H2         -0.9839    1.7725   -1.2775 H         1 <0>         0.0620
     33 H3         -1.1669    1.8608    0.4908 H         1 <0>         0.0625
     34 H4         -0.3658   -0.0214    1.9253 H         1 <0>         0.0583
     35 H5          0.3879   -1.4508    1.1789 H         1 <0>         0.0761
     36 H6          1.2503    0.1063    1.1904 H         1 <0>         0.0540
     37 H7         -2.1943   -0.4132   -1.2936 H         1 <0>         0.0554
     38 H8         -1.6236   -1.7541   -0.2716 H         1 <0>         0.0582
     39 H9         -2.3774   -0.3248    0.4748 H         1 <0>         0.0644
     40 H10         0.8121    1.4701   -2.1550 H         1 <0>         0.1471
     41 H11         2.7720   -1.7371   -4.2200 H         1 <0>         0.1400
     42 H12        -0.5614   -3.0889   -0.8353 H         1 <0>         0.3858
     43 H13         3.7607   -3.4229   -3.7200 H         1 <0>         0.0598
     44 H14         3.0558   -5.0411   -3.9501 H         1 <0>         0.0624
     45 H15         2.3282   -3.6305   -4.7558 H         1 <0>         0.0587
     46 H16         1.9857   -4.0842   -0.5153 H         1 <0>         0.0763
     47 H17         2.8558   -5.3060   -1.4737 H         1 <0>         0.0566
     48 H18         3.5607   -3.6878   -1.2437 H         1 <0>         0.0531
     49 H19         0.1174   -4.1869   -3.7335 H         1 <0>         0.0553
     50 H20         0.8450   -5.5974   -2.9277 H         1 <0>         0.0631
     51 H21        -0.0251   -4.3756   -1.9693 H         1 <0>         0.0585
     52 H22         2.5566    0.6478   -5.2922 H         1 <0>         0.1455
     53 H23         3.7575    2.9906   -5.5713 H         1 <0>         0.1173
     54 H24         2.3494    3.9363   -5.0181 H         1 <0>         0.1059
     55 H25         5.1384    3.7972   -3.8696 H         1 <0>         0.0883
     56 H26         4.1336    5.2205   -4.2021 H         1 <0>         0.1051
     57 H27         5.7969    5.8006   -2.4143 H         1 <0>         0.1388
     58 H28         6.3246    7.4939   -0.7080 H         1 <0>         0.1420
     59 H29         2.7776    6.4596    1.4270 H         1 <0>         0.1441
     60 H30         2.2365    4.7716   -0.2804 H         1 <0>         0.1380
@<TRIPOS>BOND
     1    1    2 1
     2    1   31 1
     3    1   32 1
     4    1   33 1
     5    2    3 1
     6    2    4 1
     7    2    5 1
     8    3   34 1
     9    3   35 1
    10    3   36 1
    11    4   37 1
    12    4   38 1
    13    4   39 1
    14    5   10 ar
    15    5    6 ar
    16    6    7 ar
    17    6   40 1
    18    7    8 ar
    19    7   16 1
    20    8    9 ar
    21    8   41 1
    22    9   10 ar
    23    9   12 1
    24   10   11 1
    25   11   42 1
    26   12   13 1
    27   12   14 1
    28   12   15 1
    29   13   43 1
    30   13   44 1
    31   13   45 1
    32   14   46 1
    33   14   47 1
    34   14   48 1
    35   15   49 1
    36   15   50 1
    37   15   51 1
    38   16   17 2
    39   16   52 1
    40   17   21 1
    41   17   18 1
    42   18   19 1
    43   18   53 1
    44   18   54 1
    45   19   20 1
    46   19   55 1
    47   19   56 1
    48   20   21 1
    49   20   24 1
    50   21   22 2
    51   21   23 2
    52   24   29 ar
    53   24   25 ar
    54   25   26 ar
    55   25   57 1
    56   26   27 ar
    57   26   58 1
    58   27   28 ar
    59   27   30 1
    60   28   29 ar
    61   28   59 1
    62   29   60 1
@<TRIPOS>MOLECULE
CHEMBL503071
   85    89     0     0     0
SMALL
USER_CHARGES

@<TRIPOS>ATOM
      1 C1         -2.6117    0.5479    0.1479 C.3       1 <0>        -0.1550
      2 C2         -1.6249   -0.6127    0.0782 C.3       1 <0>        -0.0357
      3 C3         -2.3124   -1.8533    0.6774 C.3       1 <0>        -0.1121
      4 C4         -2.6302   -1.6001    2.1479 C.3       1 <0>        -0.1104
      5 C5         -1.3475   -1.3795    2.9375 C.3       1 <0>        -0.0630
      6 H1         -0.7546   -2.3019    2.9224 H         1 <0>         0.1063
      7 C6         -0.5006   -0.2434    2.3639 C.3       1 <0>        -0.0283
      8 C7         -0.3496   -0.3404    0.8645 C.3       1 <0>        -0.0568
      9 H2          0.3166   -1.2208    0.6720 H         1 <0>         0.0596
     10 C8          0.3742    0.8598    0.2544 C.3       1 <0>        -0.1130
     11 C9          0.8703    0.4241   -1.1355 C.3       1 <0>        -0.1109
     12 C10        -0.3042    0.0498   -2.0317 C.3       1 <0>        -0.0260
     13 C11        -1.2487   -0.9421   -1.3677 C.3       1 <0>        -0.0552
     14 H3         -0.7490   -1.9319   -1.3294 H         1 <0>         0.0596
     15 C12        -2.4989   -1.1127   -2.2315 C.3       1 <0>        -0.0721
     16 C13        -2.1006   -1.3837   -3.6532 C.2       1 <0>        -0.1746
     17 C14        -0.9241   -1.1181   -4.1548 C.2       1 <0>        -0.0472
     18 C15         0.2100   -0.5586   -3.3471 C.3       1 <0>         0.0079
     19 C16         1.0304    0.4558   -4.1311 C.3       1 <0>        -0.0995
     20 C17         1.3013   -0.0158   -5.5617 C.3       1 <0>        -0.0861
     21 C18        -0.0091   -0.2769   -6.2971 C.3       1 <0>        -0.1131
     22 C19        -0.7380   -1.4413   -5.6284 C.3       1 <0>        -0.0179
     23 H4         -1.7353   -1.5404   -6.0832 H         1 <0>         0.0687
     24 C20         0.0330   -2.7416   -5.7969 C.3       1 <0>        -0.0989
     25 C21         0.2704   -3.0553   -7.2754 C.3       1 <0>        -0.0628
     26 C22         1.0143   -1.8963   -7.9350 C.3       1 <0>        -0.1012
     27 C23         0.2520   -0.5879   -7.7693 C.3       1 <0>        -0.0919
     28 C24         1.1379   -4.3191   -7.3747 C.3       1 <0>        -0.1397
     29 C25        -1.0579   -3.3141   -7.9848 C.3       1 <0>        -0.1395
     30 C26        -0.8852    0.9530   -6.2331 C.2       1 <0>         0.5074
     31 O1         -0.4924    2.0065   -6.7047 O.co2     1 <0>        -0.7089
     32 O2         -1.9848    0.8916   -5.7101 O.co2     1 <0>        -0.6825
     33 C27         1.1400   -1.7247   -2.9845 C.3       1 <0>        -0.1511
     34 C28        -1.0632    1.3362   -2.3982 C.3       1 <0>        -0.1528
     35 C29         0.9055   -0.3884    2.9988 C.3       1 <0>        -0.1593
     36 C30        -1.0578    1.1043    2.8196 C.3       1 <0>        -0.1534
     37 C31        -1.6925   -1.0604    4.3729 C.2       1 <0>         0.4642
     38 O3         -0.9682   -0.3449    5.0236 O.2       1 <0>        -0.4994
     39 O4         -2.8038   -1.5715    4.9256 O.3       1 <0>        -0.3527
     40 C32        -3.0682   -1.2280    6.2873 C.3       1 <0>         0.0327
     41 H5         -2.1300    1.4566   -0.2130 H         1 <0>         0.0672
     42 H6         -3.4791    0.3251   -0.4736 H         1 <0>         0.0580
     43 H7         -2.9315    0.6914    1.1800 H         1 <0>         0.0530
     44 H8         -3.2336   -2.0475    0.1296 H         1 <0>         0.0715
     45 H9         -1.6428   -2.7072    0.5852 H         1 <0>         0.0619
     46 H10        -3.3046   -0.7572    2.2679 H         1 <0>         0.0730
     47 H11        -3.1408   -2.4889    2.5495 H         1 <0>         0.0678
     48 H12        -0.2682    1.7229    0.1696 H         1 <0>         0.0694
     49 H13         1.2483    1.1197    0.8555 H         1 <0>         0.0568
     50 H14         1.4199    1.2568   -1.5806 H         1 <0>         0.0596
     51 H15         1.5526   -0.4077   -0.9800 H         1 <0>         0.0620
     52 H16        -3.0698   -1.9752   -1.8641 H         1 <0>         0.0514
     53 H17        -3.1450   -0.2422   -2.2052 H         1 <0>         0.0732
     54 H18        -2.8350   -1.8309   -4.3101 H         1 <0>         0.0898
     55 H19         0.5934    1.4447   -4.1570 H         1 <0>         0.0749
     56 H20         2.0111    0.5598   -3.6290 H         1 <0>         0.0378
     57 H21         1.8561    0.7663   -6.0910 H         1 <0>         0.0519
     58 H22         1.9073   -0.9193   -5.5481 H         1 <0>         0.0449
     59 H23         1.0110   -2.6723   -5.3169 H         1 <0>         0.0616
     60 H24        -0.5240   -3.5634   -5.3419 H         1 <0>         0.0493
     61 H25         2.0062   -1.8012   -7.4856 H         1 <0>         0.0547
     62 H26         1.1384   -2.1107   -9.0010 H         1 <0>         0.0479
     63 H27        -0.6983   -0.6325   -8.3027 H         1 <0>         0.0505
     64 H28         0.8426    0.2284   -8.2003 H         1 <0>         0.0568
     65 H29         0.6225   -5.1521   -6.8966 H         1 <0>         0.0491
     66 H30         1.3161   -4.5560   -8.4237 H         1 <0>         0.0485
     67 H31         2.0907   -4.1460   -6.8744 H         1 <0>         0.0496
     68 H32        -1.6899   -2.4295   -7.9067 H         1 <0>         0.0623
     69 H33        -0.8714   -3.5357   -9.0356 H         1 <0>         0.0464
     70 H34        -1.5599   -4.1616   -7.5182 H         1 <0>         0.0478
     71 H35         0.5583   -2.5245   -2.5263 H         1 <0>         0.0500
     72 H36         1.6232   -2.0983   -3.8873 H         1 <0>         0.0571
     73 H37         1.8990   -1.3794   -2.2825 H         1 <0>         0.0537
     74 H38        -0.4296    1.9667   -3.0219 H         1 <0>         0.0555
     75 H39        -1.9707    1.0794   -2.9447 H         1 <0>         0.0757
     76 H40        -1.3273    1.8742   -1.4878 H         1 <0>         0.0460
     77 H41         1.3242   -1.3600    2.7367 H         1 <0>         0.0467
     78 H42         1.5568    0.4010    2.6236 H         1 <0>         0.0570
     79 H43         0.8247   -0.3081    4.0829 H         1 <0>         0.0758
     80 H44        -0.7310    1.3064    3.8396 H         1 <0>         0.0705
     81 H45        -0.6930    1.8906    2.1587 H         1 <0>         0.0620
     82 H46        -2.1470    1.0774    2.7856 H         1 <0>         0.0496
     83 H47        -2.2450   -1.5699    6.9147 H         1 <0>         0.0579
     84 H48        -3.1677   -0.1462    6.3763 H         1 <0>         0.0590
     85 H49        -3.9934   -1.7057    6.6095 H         1 <0>         0.0992
@<TRIPOS>BOND
     1    1    2 1
     2    1   41 1
     3    1   42 1
     4    1   43 1
     5    2    8 1
     6    2   13 1
     7    2    3 1
     8    3    4 1
     9    3   44 1
    10    3   45 1
    11    4    5 1
    12    4   46 1
    13    4   47 1
    14    5    6 1
    15    5    7 1
    16    5   37 1
    17    7    8 1
    18    7   35 1
    19    7   36 1
    20    8    9 1
    21    8   10 1
    22   10   11 1
    23   10   48 1
    24   10   49 1
    25   11   12 1
    26   11   50 1
    27   11   51 1
    28   12   18 1
    29   12   13 1
    30   12   34 1
    31   13   14 1
    32   13   15 1
    33   15   16 1
    34   15   52 1
    35   15   53 1
    36   16   17 2
    37   16   54 1
    38   17   22 1
    39   17   18 1
    40   18   19 1
    41   18   33 1
    42   19   20 1
    43   19   55 1
    44   19   56 1
    45   20   21 1
    46   20   57 1
    47   20   58 1
    48   21   27 1
    49   21   22 1
    50   21   30 1
    51   22   23 1
    52   22   24 1
    53   24   25 1
    54   24   59 1
    55   24   60 1
    56   25   26 1
    57   25   28 1
    58   25   29 1
    59   26   27 1
    60   26   61 1
    61   26   62 1
    62   27   63 1
    63   27   64 1
    64   28   65 1
    65   28   66 1
    66   28   67 1
    67   29   68 1
    68   29   69 1
    69   29   70 1
    70   30   31 2
    71   30   32 1
    72   33   71 1
    73   33   72 1
    74   33   73 1
    75   34   74 1
    76   34   75 1
    77   34   76 1
    78   35   77 1
    79   35   78 1
    80   35   79 1
    81   36   80 1
    82   36   81 1
    83   36   82 1
    84   37   38 2
    85   37   39 1
    86   39   40 1
    87   40   83 1
    88   40   84 1
    89   40   85 1
@<TRIPOS>MOLECULE
CHEMBL420628
   38    40     0     0     0
SMALL
USER_CHARGES

@<TRIPOS>ATOM
      1 C1         -0.0184    1.5028    0.0103 C.3       1 <0>        -0.1096
      2 C2          0.0021   -0.0041    0.0020 C.ar      1 <0>         0.1432
      3 C3          0.0055   -0.6781   -1.2059 C.ar      1 <0>        -0.1762
      4 C4          0.0243   -2.0619   -1.2091 C.ar      1 <0>        -0.0285
      5 C5          0.0392   -2.7277    0.0207 C.ar      1 <0>        -0.1207
      6 C6          0.0345   -1.9756    1.1943 C.ar      1 <0>         0.1354
      7 N1          0.0218   -0.6592    1.1466 N.ar      1 <0>        -0.4817
      8 C7          0.0591   -4.2085    0.0753 C.ar      1 <0>         0.1969
      9 C8          0.7669   -4.8595    1.0983 C.ar      1 <0>        -0.0899
     10 C9          0.7723   -6.2548    1.1306 C.ar      1 <0>        -0.0433
     11 C10         0.0756   -6.9395    0.1471 C.ar      1 <0>        -0.0894
     12 C11        -0.5997   -6.2277   -0.8303 C.ar      1 <0>         0.1301
     13 N2         -0.5961   -4.9103   -0.8389 N.ar      1 <0>        -0.4562
     14 Cl1         0.0501   -8.6753    0.1403 Cl        1 <0>        -0.0399
     15 C12         1.4963   -4.0786    2.1258 C.ar      1 <0>         0.0083
     16 C13         2.3642   -3.0571    1.7428 C.ar      1 <0>        -0.1186
     17 C14         3.0405   -2.3335    2.7037 C.ar      1 <0>        -0.0121
     18 C15         2.8588   -2.6203    4.0447 C.ar      1 <0>        -0.6699
     19 C16         1.9988   -3.6327    4.4307 C.ar      1 <0>        -0.0084
     20 C17         1.3124   -4.3590    3.4789 C.ar      1 <0>        -0.1284
     21 S1          3.7266   -1.6928    5.2659 S.o2      1 <0>         2.7008
     22 O1          3.8012   -2.5145    6.4229 O.2       1 <0>        -0.9606
     23 O2          4.8830   -1.1659    4.6300 O.2       1 <0>        -0.9582
     24 N3          2.7747   -0.3980    5.6655 N.pl3     1 <0>        -1.2465
     25 H1          1.0042    1.8801    0.0026 H         1 <0>         0.0831
     26 H2         -0.5455    1.8639   -0.8728 H         1 <0>         0.0781
     27 H3         -0.5286    1.8543    0.9071 H         1 <0>         0.0804
     28 H4         -0.0067   -0.1303   -2.1366 H         1 <0>         0.1417
     29 H5          0.0270   -2.6135   -2.1376 H         1 <0>         0.1429
     30 H6          0.0459   -2.4764    2.1511 H         1 <0>         0.1577
     31 H7          1.3067   -6.7881    1.9029 H         1 <0>         0.1543
     32 H8         -1.1420   -6.7618   -1.5965 H         1 <0>         0.1738
     33 H9          2.5074   -2.8328    0.6961 H         1 <0>         0.1333
     34 H10         3.7132   -1.5419    2.4082 H         1 <0>         0.1466
     35 H11         1.8612   -3.8525    5.4791 H         1 <0>         0.1495
     36 H12         0.6376   -5.1460    3.7815 H         1 <0>         0.1399
     37 H13         2.8180   -0.0214    6.5583 H         1 <0>         0.4227
     38 H14         2.1738   -0.0162    5.0067 H         1 <0>         0.4193
@<TRIPOS>BOND
     1    1    2 1
     2    1   25 1
     3    1   26 1
     4    1   27 1
     5    2    7 ar
     6    2    3 ar
     7    3    4 ar
     8    3   28 1
     9    4    5 ar
    10    4   29 1
    11    5    6 ar
    12    5    8 1
    13    6    7 ar
    14    6   30 1
    15    8   13 ar
    16    8    9 ar
    17    9   10 ar
    18    9   15 1
    19   10   11 ar
    20   10   31 1
    21   11   12 ar
    22   11   14 1
    23   12   13 ar
    24   12   32 1
    25   15   20 ar
    26   15   16 ar
    27   16   17 ar
    28   16   33 1
    29   17   18 ar
    30   17   34 1
    31   18   19 ar
    32   18   21 1
    33   19   20 ar
    34   19   35 1
    35   20   36 1
    36   21   22 2
    37   21   23 2
    38   21   24 1
    39   24   37 1
    40   24   38 1
@<TRIPOS>MOLECULE
CHEMBL331523
   47    48     0     0     0
SMALL
USER_CHARGES

@<TRIPOS>ATOM
      1 C1         -0.0187    1.5258    0.0104 C.3       1 <0>        -0.1472
      2 C2          0.0021   -0.0041    0.0020 C.3       1 <0>        -0.0211
      3 C3          0.7421   -0.5109    1.2415 C.3       1 <0>        -0.1426
      4 C4         -1.4333   -0.5336    0.0129 C.3       1 <0>        -0.1416
      5 C5          0.7074   -0.4901   -1.2379 C.ar      1 <0>        -0.0876
      6 C6          1.2167    0.4191   -2.1447 C.ar      1 <0>        -0.0974
      7 C7          1.8639   -0.0262   -3.2825 C.ar      1 <0>        -0.0792
      8 C8          2.0032   -1.3819   -3.5157 C.ar      1 <0>        -0.1060
      9 C9          1.4957   -2.2951   -2.6119 C.ar      1 <0>        -0.0862
     10 C10         0.8509   -1.8508   -1.4667 C.ar      1 <0>         0.1214
     11 O1          0.3561   -2.7472   -0.5730 O.3       1 <0>        -0.4841
     12 C11         1.6478   -3.7726   -2.8667 C.3       1 <0>        -0.0216
     13 C12         2.3955   -3.9886   -4.1840 C.3       1 <0>        -0.1468
     14 C13         2.4380   -4.4089   -1.7215 C.3       1 <0>        -0.1427
     15 C14         0.2644   -4.4202   -2.9534 C.3       1 <0>        -0.1411
     16 C15         2.4181    0.9679   -4.2704 C.3       1 <0>        -0.1103
     17 C16         1.8377    0.7103   -5.6844 C.3       1 <0>        -0.1507
     18 C17         3.1083    0.8979   -6.5567 C.3       1 <0>         0.0481
     19 O2          4.1541    0.3738   -5.7112 O.3       1 <0>        -0.3442
     20 C18         3.9114    0.7676   -4.4458 C.2       1 <0>         0.4867
     21 O3          4.7475    0.9347   -3.5898 O.2       1 <0>        -0.4374
     22 H1          1.0039    1.9031    0.0027 H         1 <0>         0.0591
     23 H2         -0.5459    1.8868   -0.8726 H         1 <0>         0.0576
     24 H3         -0.5289    1.8773    0.9072 H         1 <0>         0.0603
     25 H4          0.2319   -0.1594    2.1383 H         1 <0>         0.0549
     26 H5          0.7568   -1.6008    1.2356 H         1 <0>         0.0750
     27 H6          1.7647   -0.1336    1.2338 H         1 <0>         0.0518
     28 H7         -1.9605   -0.1726   -0.8702 H         1 <0>         0.0541
     29 H8         -1.4185   -1.6235    0.0069 H         1 <0>         0.0581
     30 H9         -1.9435   -0.1821    0.9097 H         1 <0>         0.0612
     31 H10         1.1089    1.4786   -1.9650 H         1 <0>         0.1319
     32 H11         2.5089   -1.7272   -4.4054 H         1 <0>         0.1299
     33 H12        -0.5564   -3.0147   -0.7485 H         1 <0>         0.3818
     34 H13         3.3811   -3.5272   -4.1222 H         1 <0>         0.0582
     35 H14         2.5055   -5.0573   -4.3683 H         1 <0>         0.0608
     36 H15         1.8326   -3.5353   -4.9999 H         1 <0>         0.0570
     37 H16         1.9053   -4.2550   -0.7830 H         1 <0>         0.0755
     38 H17         2.5480   -5.4776   -1.9057 H         1 <0>         0.0551
     39 H18         3.4236   -3.9475   -1.6597 H         1 <0>         0.0514
     40 H19        -0.2985   -3.9669   -3.7693 H         1 <0>         0.0541
     41 H20         0.3744   -5.4889   -3.1377 H         1 <0>         0.0614
     42 H21        -0.2683   -4.2663   -2.0150 H         1 <0>         0.0580
     43 H22         2.2044    1.9866   -3.9469 H         1 <0>         0.1232
     44 H23         1.4471   -0.3037   -5.7708 H         1 <0>         0.0954
     45 H24         1.0747    1.4467   -5.9368 H         1 <0>         0.1017
     46 H25         3.0322    0.3222   -7.4792 H         1 <0>         0.1182
     47 H26         3.2773    1.9531   -6.7714 H         1 <0>         0.0861
@<TRIPOS>BOND
     1    1    2 1
     2    1   22 1
     3    1   23 1
     4    1   24 1
     5    2    3 1
     6    2    4 1
     7    2    5 1
     8    3   25 1
     9    3   26 1
    10    3   27 1
    11    4   28 1
    12    4   29 1
    13    4   30 1
    14    5   10 ar
    15    5    6 ar
    16    6    7 ar
    17    6   31 1
    18    7    8 ar
    19    7   16 1
    20    8    9 ar
    21    8   32 1
    22    9   10 ar
    23    9   12 1
    24   10   11 1
    25   11   33 1
    26   12   13 1
    27   12   14 1
    28   12   15 1
    29   13   34 1
    30   13   35 1
    31   13   36 1
    32   14   37 1
    33   14   38 1
    34   14   39 1
    35   15   40 1
    36   15   41 1
    37   15   42 1
    38   16   20 1
    39   16   17 1
    40   16   43 1
    41   17   18 1
    42   17   44 1
    43   17   45 1
    44   18   19 1
    45   18   46 1
    46   18   47 1
    47   19   20 1
    48   20   21 2
@<TRIPOS>MOLECULE
CHEMBL331523__1
   47    48     0     0     0
SMALL
USER_CHARGES

@<TRIPOS>ATOM
      1 C1         -0.0187    1.5258    0.0104 C.3       1 <0>        -0.1472
      2 C2          0.0021   -0.0041    0.0020 C.3       1 <0>        -0.0211
      3 C3          0.7421   -0.5109    1.2415 C.3       1 <0>        -0.1413
      4 C4         -1.4333   -0.5336    0.0129 C.3       1 <0>        -0.1429
      5 C5          0.7074   -0.4901   -1.2379 C.ar      1 <0>        -0.0875
      6 C6          1.2167    0.4191   -2.1447 C.ar      1 <0>        -0.0974
      7 C7          1.8639   -0.0262   -3.2825 C.ar      1 <0>        -0.0792
      8 C8          2.0032   -1.3819   -3.5157 C.ar      1 <0>        -0.1059
      9 C9          1.4957   -2.2951   -2.6119 C.ar      1 <0>        -0.0861
     10 C10         0.8509   -1.8508   -1.4667 C.ar      1 <0>         0.1213
     11 O1          0.3561   -2.7472   -0.5730 O.3       1 <0>        -0.4849
     12 C11         1.6478   -3.7726   -2.8667 C.3       1 <0>        -0.0216
     13 C12         2.3955   -3.9886   -4.1840 C.3       1 <0>        -0.1468
     14 C13         2.4380   -4.4089   -1.7215 C.3       1 <0>        -0.1411
     15 C14         0.2644   -4.4202   -2.9534 C.3       1 <0>        -0.1426
     16 C15         2.4181    0.9679   -4.2704 C.3       1 <0>        -0.1103
     17 C16         3.9315    0.7221   -4.4980 C.3       1 <0>        -0.1510
     18 C17         4.0253    0.9031   -6.0371 C.3       1 <0>         0.0482
     19 O2          2.7671    0.3660   -6.4972 O.3       1 <0>        -0.3442
     20 C18         1.8029    0.7557   -5.6405 C.2       1 <0>         0.4872
     21 O3          0.6372    0.9103   -5.9184 O.2       1 <0>        -0.4385
     22 H1          1.0039    1.9031    0.0027 H         1 <0>         0.0583
     23 H2         -0.5459    1.8868   -0.8726 H         1 <0>         0.0584
     24 H3         -0.5289    1.8773    0.9072 H         1 <0>         0.0603
     25 H4          0.2319   -0.1594    2.1383 H         1 <0>         0.0547
     26 H5          0.7568   -1.6008    1.2356 H         1 <0>         0.0750
     27 H6          1.7647   -0.1336    1.2338 H         1 <0>         0.0508
     28 H7         -1.9605   -0.1726   -0.8702 H         1 <0>         0.0550
     29 H8         -1.4185   -1.6235    0.0069 H         1 <0>         0.0581
     30 H9         -1.9435   -0.1821    0.9097 H         1 <0>         0.0614
     31 H10         1.1089    1.4786   -1.9650 H         1 <0>         0.1319
     32 H11         2.5089   -1.7272   -4.4054 H         1 <0>         0.1298
     33 H12        -0.5564   -3.0147   -0.7485 H         1 <0>         0.3827
     34 H13         3.3811   -3.5272   -4.1222 H         1 <0>         0.0577
     35 H14         2.5055   -5.0573   -4.3683 H         1 <0>         0.0608
     36 H15         1.8326   -3.5353   -4.9999 H         1 <0>         0.0575
     37 H16         1.9053   -4.2550   -0.7830 H         1 <0>         0.0754
     38 H17         2.5480   -5.4776   -1.9057 H         1 <0>         0.0548
     39 H18         3.4236   -3.9475   -1.6597 H         1 <0>         0.0508
     40 H19        -0.2985   -3.9669   -3.7693 H         1 <0>         0.0546
     41 H20         0.3744   -5.4889   -3.1377 H         1 <0>         0.0617
     42 H21        -0.2683   -4.2663   -2.0150 H         1 <0>         0.0581
     43 H22         2.2416    1.9868   -3.9258 H         1 <0>         0.1233
     44 H23         4.5338    1.4663   -3.9768 H         1 <0>         0.1019
     45 H24         4.2150   -0.2880   -4.2025 H         1 <0>         0.0956
     46 H25         4.1136    1.9578   -6.2975 H         1 <0>         0.0862
     47 H26         4.8606    0.3325   -6.4431 H         1 <0>         0.1183
@<TRIPOS>BOND
     1    1    2 1
     2    1   22 1
     3    1   23 1
     4    1   24 1
     5    2    3 1
     6    2    4 1
     7    2    5 1
     8    3   25 1
     9    3   26 1
    10    3   27 1
    11    4   28 1
    12    4   29 1
    13    4   30 1
    14    5   10 ar
    15    5    6 ar
    16    6    7 ar
    17    6   31 1
    18    7    8 ar
    19    7   16 1
    20    8    9 ar
    21    8   32 1
    22    9   10 ar
    23    9   12 1
    24   10   11 1
    25   11   33 1
    26   12   13 1
    27   12   14 1
    28   12   15 1
    29   13   34 1
    30   13   35 1
    31   13   36 1
    32   14   37 1
    33   14   38 1
    34   14   39 1
    35   15   40 1
    36   15   41 1
    37   15   42 1
    38   16   20 1
    39   16   17 1
    40   16   43 1
    41   17   18 1
    42   17   44 1
    43   17   45 1
    44   18   19 1
    45   18   46 1
    46   18   47 1
    47   19   20 1
    48   20   21 2
@<TRIPOS>MOLECULE
CHEMBL441414
   37    38     0     0     0
SMALL
USER_CHARGES

@<TRIPOS>ATOM
      1 C1         -0.0187    1.5258    0.0104 C.3       1 <0>        -0.1162
      2 C2          0.0021   -0.0041    0.0020 C.3       1 <0>        -0.1321
      3 H1         -1.0205   -0.3814    0.0098 H         1 <0>         0.0664
      4 C3          0.7074   -0.4901   -1.2379 C.ar      1 <0>        -0.0387
      5 C4          2.0258   -0.1416   -1.4645 C.ar      1 <0>        -0.1028
      6 C5          2.6729   -0.5874   -2.6018 C.ar      1 <0>        -0.1185
      7 C6          2.0017   -1.3820   -3.5123 C.ar      1 <0>        -0.1042
      8 C7          0.6836   -1.7312   -3.2852 C.ar      1 <0>        -0.1194
      9 C8          0.0378   -1.2890   -2.1457 C.ar      1 <0>        -0.1243
     10 C9          2.7067   -1.8672   -4.7526 C.3       1 <0>        -0.0638
     11 C10         3.3802   -3.2104   -4.4641 C.3       1 <0>        -0.0790
     12 H2          4.0338   -3.1295   -3.5955 H         1 <0>         0.0877
     13 C11         2.3161   -4.3135   -4.2409 C.3       1 <0>        -0.1178
     14 C12         3.0938   -5.6110   -4.5737 C.3       1 <0>        -0.1233
     15 C13         3.9905   -5.2192   -5.7663 C.3       1 <0>        -0.1568
     16 C14         4.1755   -3.6912   -5.6954 C.3       1 <0>         0.1013
     17 H3          3.7822   -3.2256   -6.5990 H         1 <0>         0.0575
     18 O1          5.5592   -3.3692   -5.5406 O.3       1 <0>        -0.5638
     19 C15         0.7309   -0.5033    1.2229 C.2       1 <0>         0.5042
     20 O2          0.3147   -1.4781    1.8253 O.co2     1 <0>        -0.6985
     21 O3          1.7369    0.0677    1.6083 O.co2     1 <0>        -0.6904
     22 H4          1.0039    1.9031    0.0027 H         1 <0>         0.0599
     23 H5         -0.5459    1.8868   -0.8726 H         1 <0>         0.0362
     24 H6         -0.5289    1.8773    0.9072 H         1 <0>         0.0471
     25 H7          2.5502    0.4792   -0.7532 H         1 <0>         0.1301
     26 H8          3.7027   -0.3146   -2.7792 H         1 <0>         0.1139
     27 H9          0.1591   -2.3518   -3.9967 H         1 <0>         0.1119
     28 H10        -0.9908   -1.5649   -1.9665 H         1 <0>         0.1148
     29 H11         1.9824   -1.9896   -5.5580 H         1 <0>         0.0658
     30 H12         3.4612   -1.1389   -5.0501 H         1 <0>         0.0693
     31 H13         1.9785   -4.3206   -3.2045 H         1 <0>         0.0762
     32 H14         1.4749   -4.1821   -4.9215 H         1 <0>         0.0682
     33 H15         3.7026   -5.9194   -3.7238 H         1 <0>         0.0672
     34 H16         2.4050   -6.4060   -4.8593 H         1 <0>         0.0645
     35 H17         4.9579   -5.7148   -5.6847 H         1 <0>         0.0697
     36 H18         3.5071   -5.4952   -6.7034 H         1 <0>         0.0653
     37 H19         6.1129   -3.6462   -6.2834 H         1 <0>         0.3725
@<TRIPOS>BOND
     1    1    2 1
     2    1   22 1
     3    1   23 1
     4    1   24 1
     5    2    3 1
     6    2    4 1
     7    2   19 1
     8    4    9 ar
     9    4    5 ar
    10    5    6 ar
    11    5   25 1
    12    6    7 ar
    13    6   26 1
    14    7    8 ar
    15    7   10 1
    16    8    9 ar
    17    8   27 1
    18    9   28 1
    19   10   11 1
    20   10   29 1
    21   10   30 1
    22   11   12 1
    23   11   16 1
    24   11   13 1
    25   13   14 1
    26   13   31 1
    27   13   32 1
    28   14   15 1
    29   14   33 1
    30   14   34 1
    31   15   16 1
    32   15   35 1
    33   15   36 1
    34   16   17 1
    35   16   18 1
    36   18   37 1
    37   19   20 2
    38   19   21 1
@<TRIPOS>MOLECULE
CHEMBL1079876
   34    35     0     0     0
SMALL
USER_CHARGES

@<TRIPOS>ATOM
      1 C1         -1.4595   -0.4823   -0.2084 C.3       1 <0>         0.0293
      2 O1         -0.1563    0.0103    0.1099 O.3       1 <0>        -0.3234
      3 C2          0.5068   -0.6080    1.1236 C.ar      1 <0>         0.0823
      4 C3         -0.0841   -1.6699    1.7924 C.ar      1 <0>        -0.1751
      5 C4          0.5885   -2.2983    2.8218 C.ar      1 <0>        -0.1245
      6 C5          1.8572   -1.8671    3.1871 C.ar      1 <0>         0.1599
      7 C6          2.4482   -0.8040    2.5165 C.ar      1 <0>        -0.1261
      8 C7          1.7760   -0.1800    1.4842 C.ar      1 <0>        -0.1206
      9 N1          2.5393   -2.5029    4.2303 N.pl3     1 <0>        -0.6663
     10 C8          2.5098   -3.8988    4.3380 C.ar      1 <0>         0.0937
     11 C9          1.9427   -4.6699    3.3366 C.ar      1 <0>         0.0476
     12 N2          1.9121   -5.9859    3.4340 N.ar      1 <0>        -0.5189
     13 C10         2.4142   -6.6209    4.4760 C.ar      1 <0>         0.0995
     14 C11         2.9978   -5.9273    5.5173 C.ar      1 <0>        -0.2807
     15 C12         3.0582   -4.5376    5.4568 C.ar      1 <0>         0.2663
     16 N3          3.6447   -3.8011    6.4858 N.2       1 <0>        -1.0619
     17 S1          4.2867   -4.5791    7.7991 S.o2      1 <0>         2.5163
     18 O2          3.1782   -5.2129    8.4227 O.2       1 <0>        -0.9537
     19 O3          5.3606   -5.3484    7.2756 O.2       1 <0>        -0.9542
     20 C13         4.9263   -3.2536    8.8595 C.3       1 <0>        -0.0078
     21 F1          3.8785   -2.4014    9.2240 F         1 <0>        -0.1644
     22 F2          5.4962   -3.8104   10.0095 F         1 <0>        -0.1829
     23 F3          5.8976   -2.5268    8.1628 F         1 <0>        -0.1646
     24 H1         -2.1061   -0.3894    0.6642 H         1 <0>         0.0522
     25 H2         -1.8757    0.0973   -1.0323 H         1 <0>         0.0940
     26 H3         -1.3906   -1.5303   -0.4997 H         1 <0>         0.0534
     27 H4         -1.0706   -2.0051    1.5081 H         1 <0>         0.1257
     28 H5          0.1279   -3.1246    3.3429 H         1 <0>         0.1318
     29 H6          3.4346   -0.4678    2.8001 H         1 <0>         0.1300
     30 H7          2.2369    0.6442    0.9601 H         1 <0>         0.1275
     31 H8          3.0326   -1.9767    4.8789 H         1 <0>         0.4183
     32 H9          1.5204   -4.1889    2.4667 H         1 <0>         0.1467
     33 H10         2.3677   -7.6992    4.5151 H         1 <0>         0.1385
     34 H11         3.4057   -6.4561    6.3660 H         1 <0>         0.1119
@<TRIPOS>BOND
     1    1    2 1
     2    1   24 1
     3    1   25 1
     4    1   26 1
     5    2    3 1
     6    3    8 ar
     7    3    4 ar
     8    4    5 ar
     9    4   27 1
    10    5    6 ar
    11    5   28 1
    12    6    7 ar
    13    6    9 1
    14    7    8 ar
    15    7   29 1
    16    8   30 1
    17    9   10 1
    18    9   31 1
    19   10   15 ar
    20   10   11 ar
    21   11   12 ar
    22   11   32 1
    23   12   13 ar
    24   13   14 ar
    25   13   33 1
    26   14   15 ar
    27   14   34 1
    28   15   16 1
    29   16   17 1
    30   17   18 2
    31   17   19 2
    32   17   20 1
    33   20   21 1
    34   20   22 1
    35   20   23 1
@<TRIPOS>MOLECULE
CHEMBL1079876__1
   35    36     0     0     0
SMALL
USER_CHARGES

@<TRIPOS>ATOM
      1 C1         -0.2527    1.6608    8.0577 C.3       1 <0>         0.0288
      2 O1         -0.2665    0.2336    8.1296 O.3       1 <0>        -0.3206
      3 C2          0.4234   -0.4396    7.1703 C.ar      1 <0>         0.0835
      4 C3          1.1033    0.2611    6.1849 C.ar      1 <0>        -0.1674
      5 C4          1.8044   -0.4215    5.2106 C.ar      1 <0>        -0.1391
      6 C5          1.8288   -1.8103    5.2175 C.ar      1 <0>         0.1817
      7 C6          1.1477   -2.5110    6.2046 C.ar      1 <0>        -0.1195
      8 C7          0.4514   -1.8264    7.1811 C.ar      1 <0>        -0.1109
      9 N1          2.5384   -2.5028    4.2306 N.pl3     1 <0>        -0.6684
     10 C8          2.6961   -3.8935    4.3256 C.2       1 <0>         0.0963
     11 C9          2.2415   -4.7091    3.3472 C.2       1 <0>         0.1068
     12 N2          2.3974   -6.0617    3.4433 N.pl3     1 <0>        -0.5709
     13 C10         3.0062   -6.6452    4.5079 C.2       1 <0>         0.1883
     14 C11         3.4899   -5.9129    5.5291 C.2       1 <0>        -0.3024
     15 C12         3.3650   -4.4965    5.4887 C.2       1 <0>         0.3823
     16 N3          3.8328   -3.7438    6.4706 N.2       1 <0>        -0.9670
     17 S1          4.5818   -4.4478    7.7689 S.o2      1 <0>         2.5380
     18 O2          3.5711   -5.2296    8.3906 O.2       1 <0>        -0.9157
     19 O3          5.7431   -5.0627    7.2280 O.2       1 <0>        -0.9182
     20 C13         5.0507   -3.0637    8.8436 C.3       1 <0>        -0.0009
     21 F1          3.9031   -2.3612    9.2266 F         1 <0>        -0.1525
     22 F2          5.6979   -3.5558    9.9821 F         1 <0>        -0.1668
     23 F3          5.9127   -2.2068    8.1510 F         1 <0>        -0.1564
     24 H1         -0.6827    1.9809    7.1086 H         1 <0>         0.0531
     25 H2         -0.8393    2.0716    8.8794 H         1 <0>         0.0975
     26 H3          0.7744    2.0183    8.1302 H         1 <0>         0.0531
     27 H4          1.0839    1.3409    6.1795 H         1 <0>         0.1277
     28 H5          2.3334    0.1242    4.4433 H         1 <0>         0.1245
     29 H6          1.1660   -3.5908    6.2108 H         1 <0>         0.1206
     30 H7         -0.0745   -2.3709    7.9513 H         1 <0>         0.1297
     31 H8          2.9214   -2.0214    3.4807 H         1 <0>         0.4116
     32 H9          1.7507   -4.2866    2.4828 H         1 <0>         0.1845
     33 H10         3.1042   -7.7203    4.5362 H         1 <0>         0.1842
     34 H11         3.9710   -6.3951    6.3672 H         1 <0>         0.1521
     35 H12         2.0621   -6.6247    2.7280 H         1 <0>         0.4324
@<TRIPOS>BOND
     1    1    2 1
     2    1   24 1
     3    1   25 1
     4    1   26 1
     5    2    3 1
     6    3    8 ar
     7    3    4 ar
     8    4    5 ar
     9    4   27 1
    10    5    6 ar
    11    5   28 1
    12    6    7 ar
    13    6    9 1
    14    7    8 ar
    15    7   29 1
    16    8   30 1
    17    9   10 1
    18    9   31 1
    19   10   15 1
    20   10   11 2
    21   11   12 1
    22   11   32 1
    23   12   13 1
    24   12   35 1
    25   13   14 2
    26   13   33 1
    27   14   15 1
    28   14   34 1
    29   15   16 2
    30   16   17 1
    31   17   18 2
    32   17   19 2
    33   17   20 1
    34   20   21 1
    35   20   22 1
    36   20   23 1
@<TRIPOS>MOLECULE
CHEMBL1079876__2
   34    35     0     0     0
SMALL
USER_CHARGES

@<TRIPOS>ATOM
      1 C1         -0.2527    1.6608    8.0577 C.3       1 <0>         0.0329
      2 O1         -0.2665    0.2336    8.1296 O.3       1 <0>        -0.3256
      3 C2          0.4234   -0.4396    7.1703 C.ar      1 <0>         0.0555
      4 C3          1.1033    0.2611    6.1849 C.ar      1 <0>        -0.1664
      5 C4          1.8044   -0.4215    5.2106 C.ar      1 <0>        -0.1659
      6 C5          1.8288   -1.8103    5.2175 C.ar      1 <0>         0.2130
      7 C6          1.1477   -2.5110    6.2046 C.ar      1 <0>        -0.1154
      8 C7          0.4514   -1.8264    7.1811 C.ar      1 <0>        -0.1072
      9 N1          2.5384   -2.5028    4.2306 N.pl3     1 <0>        -0.6641
     10 C8          2.6961   -3.8935    4.3256 C.2       1 <0>         0.0111
     11 C9          2.2415   -4.7091    3.3472 C.2       1 <0>         0.1123
     12 N2          2.3974   -6.0617    3.4433 N.2       1 <0>        -0.5766
     13 C10         3.0062   -6.6452    4.5079 C.2       1 <0>         0.1474
     14 C11         3.4899   -5.9129    5.5291 C.2       1 <0>        -0.3463
     15 C12         3.3650   -4.4965    5.4887 C.2       1 <0>         0.3410
     16 N3          3.8328   -3.7438    6.4706 N.2       1 <0>        -1.0143
     17 S1          4.5818   -4.4478    7.7689 S.o2      1 <0>         2.5191
     18 O2          3.5711   -5.2296    8.3906 O.2       1 <0>        -0.9421
     19 O3          5.7431   -5.0627    7.2280 O.2       1 <0>        -0.9442
     20 C13         5.0507   -3.0637    8.8436 C.3       1 <0>        -0.0082
     21 F1          3.9031   -2.3612    9.2266 F         1 <0>        -0.1584
     22 F2          5.6979   -3.5558    9.9821 F         1 <0>        -0.1813
     23 F3          5.9127   -2.2068    8.1510 F         1 <0>        -0.1632
     24 H1         -0.6827    1.9809    7.1086 H         1 <0>         0.0482
     25 H2         -0.8393    2.0716    8.8794 H         1 <0>         0.0899
     26 H3          0.7744    2.0183    8.1302 H         1 <0>         0.0485
     27 H4          1.0839    1.3409    6.1795 H         1 <0>         0.1175
     28 H5          2.3334    0.1242    4.4433 H         1 <0>         0.1160
     29 H6          1.1660   -3.5908    6.2108 H         1 <0>         0.1259
     30 H7         -0.0745   -2.3709    7.9513 H         1 <0>         0.1219
     31 H8          2.9214   -2.0214    3.4807 H         1 <0>         0.3962
     32 H9          1.7507   -4.2866    2.4828 H         1 <0>         0.1391
     33 H10         3.1042   -7.7203    4.5362 H         1 <0>         0.1347
     34 H11         3.9710   -6.3951    6.3672 H         1 <0>         0.1090
@<TRIPOS>BOND
     1    1    2 1
     2    1   24 1
     3    1   25 1
     4    1   26 1
     5    2    3 1
     6    3    8 ar
     7    3    4 ar
     8    4    5 ar
     9    4   27 1
    10    5    6 ar
    11    5   28 1
    12    6    7 ar
    13    6    9 1
    14    7    8 ar
    15    7   29 1
    16    8   30 1
    17    9   10 1
    18    9   31 1
    19   10   15 1
    20   10   11 2
    21   11   12 1
    22   11   32 1
    23   12   13 1
    24   13   14 2
    25   13   33 1
    26   14   15 1
    27   14   34 1
    28   15   16 2
    29   16   17 1
    30   17   18 2
    31   17   19 2
    32   17   20 1
    33   20   21 1
    34   20   22 1
    35   20   23 1
@<TRIPOS>MOLECULE
CHEMBL13920
   48    49     0     0     0
SMALL
USER_CHARGES

@<TRIPOS>ATOM
      1 C1         -0.0187    1.5258    0.0104 C.3       1 <0>        -0.1364
      2 C2          0.0021   -0.0041    0.0020 C.3       1 <0>        -0.0517
      3 C3         -1.4208   -0.5776    0.2013 C.3       1 <0>         0.0542
      4 O1         -1.4944   -0.7620    1.6248 O.3       1 <0>        -0.2910
      5 C4         -0.2449   -0.9741    2.1168 C.ar      1 <0>         0.1526
      6 C5          0.7294   -0.5433    1.2192 C.ar      1 <0>        -0.1754
      7 C6          2.0544   -0.6499    1.5157 C.ar      1 <0>        -0.0108
      8 C7          2.4559   -1.2073    2.7370 C.ar      1 <0>        -0.2021
      9 C8          1.4846   -1.6506    3.6432 C.ar      1 <0>        -0.0390
     10 C9          0.1507   -1.5340    3.3336 C.ar      1 <0>        -0.1041
     11 C10        -0.8905   -2.0129    4.3121 C.3       1 <0>        -0.0219
     12 C11        -0.2005   -2.5788    5.5549 C.3       1 <0>        -0.1480
     13 C12        -1.7880   -0.8414    4.7159 C.3       1 <0>        -0.1415
     14 C13        -1.7403   -3.1048    3.6589 C.3       1 <0>        -0.1417
     15 C14         3.8828   -1.3260    3.0636 C.2       1 <0>         0.4014
     16 O2          4.7197   -0.9407    2.2746 O.2       1 <0>        -0.4542
     17 C15         4.3073   -1.9265    4.3789 C.3       1 <0>        -0.1674
     18 C16         5.8347   -1.9326    4.4676 C.3       1 <0>        -0.1067
     19 C17         6.2657   -2.5422    5.8030 C.3       1 <0>        -0.0125
     20 C18         7.7352   -2.5480    5.8883 C.1       1 <0>        -0.1917
     21 C19         8.9072   -2.5526    5.9563 C.1       1 <0>        -0.2057
     22 C20         0.6299   -0.5328   -1.2892 C.3       1 <0>        -0.1380
     23 H1          1.0039    1.9031    0.0027 H         1 <0>         0.0641
     24 H2         -0.5459    1.8868   -0.8726 H         1 <0>         0.0661
     25 H3         -0.5289    1.8773    0.9072 H         1 <0>         0.0606
     26 H4         -2.1745    0.1343   -0.1352 H         1 <0>         0.1100
     27 H5         -1.5291   -1.5301   -0.3174 H         1 <0>         0.0817
     28 H6          2.7954   -0.3053    0.8096 H         1 <0>         0.1329
     29 H7          1.7840   -2.0846    4.5857 H         1 <0>         0.1451
     30 H8          0.4049   -1.8009    6.0202 H         1 <0>         0.0599
     31 H9         -0.9536   -2.9252    6.2626 H         1 <0>         0.0625
     32 H10         0.4389   -3.4134    5.2672 H         1 <0>         0.0598
     33 H11        -2.2796   -0.4383    3.8305 H         1 <0>         0.0642
     34 H12        -2.5411   -1.1878    5.4237 H         1 <0>         0.0592
     35 H13        -1.1826   -0.0636    5.1812 H         1 <0>         0.0541
     36 H14        -1.1009   -3.9394    3.3712 H         1 <0>         0.0539
     37 H15        -2.4934   -3.4512    4.3667 H         1 <0>         0.0595
     38 H16        -2.2319   -2.7017    2.7735 H         1 <0>         0.0631
     39 H17         3.8982   -1.3344    5.1976 H         1 <0>         0.1024
     40 H18         3.9353   -2.9487    4.4486 H         1 <0>         0.1024
     41 H19         6.2438   -2.5247    3.6490 H         1 <0>         0.0733
     42 H20         6.2067   -0.9104    4.3979 H         1 <0>         0.0733
     43 H21         5.8566   -1.9501    6.6216 H         1 <0>         0.0876
     44 H22         5.8937   -3.5644    5.8727 H         1 <0>         0.0876
     45 H23         9.9555   -2.5568    6.0171 H         1 <0>         0.2169
     46 H24         1.6576   -0.1776   -1.3654 H         1 <0>         0.0653
     47 H25         0.6221   -1.6227   -1.2772 H         1 <0>         0.0609
     48 H26         0.0574   -0.1747   -2.1448 H         1 <0>         0.0656
@<TRIPOS>BOND
     1    1    2 1
     2    1   23 1
     3    1   24 1
     4    1   25 1
     5    2    6 1
     6    2    3 1
     7    2   22 1
     8    3    4 1
     9    3   26 1
    10    3   27 1
    11    4    5 1
    12    5   10 ar
    13    5    6 ar
    14    6    7 ar
    15    7    8 ar
    16    7   28 1
    17    8    9 ar
    18    8   15 1
    19    9   10 ar
    20    9   29 1
    21   10   11 1
    22   11   12 1
    23   11   13 1
    24   11   14 1
    25   12   30 1
    26   12   31 1
    27   12   32 1
    28   13   33 1
    29   13   34 1
    30   13   35 1
    31   14   36 1
    32   14   37 1
    33   14   38 1
    34   15   16 2
    35   15   17 1
    36   17   18 1
    37   17   39 1
    38   17   40 1
    39   18   19 1
    40   18   41 1
    41   18   42 1
    42   19   20 1
    43   19   43 1
    44   19   44 1
    45   20   21 3
    46   21   45 1
    47   22   46 1
    48   22   47 1
    49   22   48 1
@<TRIPOS>MOLECULE
CHEMBL214101
   34    37     0     0     0
SMALL
USER_CHARGES

@<TRIPOS>ATOM
      1 C1         -0.0167    1.3793    0.0096 C.ar      1 <0>        -0.1140
      2 C2          1.1685    2.0931    0.0021 C.ar      1 <0>        -0.1200
      3 C3          2.3774    1.4283   -0.0135 C.ar      1 <0>        -0.0961
      4 C4          2.4030    0.0335   -0.0212 C.ar      1 <0>        -0.0200
      5 C5          1.2045   -0.6805   -0.0131 C.ar      1 <0>        -0.0915
      6 C6          0.0021   -0.0041    0.0020 C.ar      1 <0>        -0.1177
      7 C7          3.6970   -0.6862   -0.0384 C.2       1 <0>        -0.1771
      8 C8          4.1743   -1.4919    0.9526 C.2       1 <0>        -0.0082
      9 C9          5.5191   -1.9950    0.4826 C.3       1 <0>         0.0669
     10 O1          5.7408   -1.4207   -0.8084 O.3       1 <0>        -0.3185
     11 C10         4.6800   -0.6581   -1.1278 C.2       1 <0>         0.5086
     12 O2          4.5554   -0.0349   -2.1640 O.2       1 <0>        -0.4525
     13 C11         3.5127   -1.8078    2.2239 C.ar      1 <0>        -0.0879
     14 C12         3.2822   -0.7959    3.1653 C.ar      1 <0>        -0.0802
     15 C13         2.6660   -1.0921    4.3476 C.ar      1 <0>        -0.1056
     16 C14         2.2655   -2.4027    4.6187 C.ar      1 <0>         0.0727
     17 C15         2.4943   -3.4131    3.6816 C.ar      1 <0>        -0.1069
     18 C16         3.1054   -3.1205    2.4957 C.ar      1 <0>        -0.0900
     19 C17         1.5988   -2.7211    5.9000 C.2       1 <0>         0.0664
     20 N1          1.1628   -3.9180    6.2976 N.2       1 <0>        -0.3635
     21 N2          0.6449   -3.7719    7.4691 N.2       1 <0>        -0.1880
     22 N3          0.7366   -2.5381    7.8234 N.2       1 <0>        -0.1879
     23 N4          1.3200   -1.8690    6.8885 N.2       1 <0>        -0.3630
     24 H1         -0.9604    1.9042    0.0260 H         1 <0>         0.1219
     25 H2          1.1474    3.1729    0.0082 H         1 <0>         0.1236
     26 H3          3.3019    1.9865   -0.0200 H         1 <0>         0.1205
     27 H4          1.2179   -1.7604   -0.0194 H         1 <0>         0.1223
     28 H5         -0.9264   -0.5556    0.0083 H         1 <0>         0.1244
     29 H6          6.2997   -1.6750    1.1728 H         1 <0>         0.1256
     30 H7          5.5066   -3.0825    0.4104 H         1 <0>         0.1240
     31 H8          3.5920    0.2174    2.9563 H         1 <0>         0.1210
     32 H9          2.4884   -0.3126    5.0737 H         1 <0>         0.1336
     33 H10         2.1842   -4.4258    3.8934 H         1 <0>         0.1343
     34 H11         3.2781   -3.9012    1.7697 H         1 <0>         0.1230
@<TRIPOS>BOND
     1    1    6 ar
     2    1    2 ar
     3    1   24 1
     4    2    3 ar
     5    2   25 1
     6    3    4 ar
     7    3   26 1
     8    4    5 ar
     9    4    7 1
    10    5    6 ar
    11    5   27 1
    12    6   28 1
    13    7   11 1
    14    7    8 2
    15    8    9 1
    16    8   13 1
    17    9   10 1
    18    9   29 1
    19    9   30 1
    20   10   11 1
    21   11   12 2
    22   13   18 ar
    23   13   14 ar
    24   14   15 ar
    25   14   31 1
    26   15   16 ar
    27   15   32 1
    28   16   17 ar
    29   16   19 1
    30   17   18 ar
    31   17   33 1
    32   18   34 1
    33   19   20 2
    34   19   23 1
    35   20   21 1
    36   21   22 2
    37   22   23 1
@<TRIPOS>MOLECULE
CHEMBL213338
   39    42     0     0     0
SMALL
USER_CHARGES

@<TRIPOS>ATOM
      1 C1          0.0477    1.5033    0.0091 C.3       1 <0>        -0.1184
      2 C2          0.0528   -0.0036    0.0012 C.ar      1 <0>        -0.0697
      3 C3          0.5722   -0.6963    1.0804 C.ar      1 <0>        -0.1155
      4 C4          0.5802   -2.0759    1.0792 C.ar      1 <0>        -0.0888
      5 C5          0.0626   -2.7726   -0.0133 C.ar      1 <0>        -0.0521
      6 C6         -0.4601   -2.0682   -1.0984 C.ar      1 <0>        -0.0825
      7 C7         -0.4670   -0.6886   -1.0826 C.ar      1 <0>        -0.1238
      8 C8          0.0685   -4.2518   -0.0214 C.2       1 <0>         0.1426
      9 C9          0.0751   -5.0559   -1.1262 C.2       1 <0>        -0.2163
     10 C10         0.0791   -6.3816   -0.6909 C.2       1 <0>        -0.0237
     11 N1          0.0751   -6.3922    0.6184 N.2       1 <0>        -0.2226
     12 N2          0.0744   -5.0677    1.0742 N.pl3     1 <0>        -0.2841
     13 C11         0.0759   -4.6547    2.4109 C.ar      1 <0>         0.0954
     14 C12        -0.7909   -3.6511    2.8278 C.ar      1 <0>        -0.1017
     15 C13        -0.7916   -3.2422    4.1438 C.ar      1 <0>        -0.0920
     16 C14         0.0786   -3.8371    5.0583 C.ar      1 <0>         0.0713
     17 C15         0.9474   -4.8447    4.6369 C.ar      1 <0>        -0.0943
     18 C16         0.9402   -5.2527    3.3207 C.ar      1 <0>        -0.0924
     19 C17         0.0806   -3.4000    6.4718 C.2       1 <0>         0.0664
     20 N3          0.8511   -3.8735    7.4529 N.2       1 <0>        -0.3613
     21 N4          0.5464   -3.2316    8.5286 N.2       1 <0>        -0.1861
     22 N5         -0.3799   -2.3777    8.2658 N.2       1 <0>        -0.1863
     23 N6         -0.6838   -2.4508    7.0151 N.2       1 <0>        -0.3615
     24 C18         0.0866   -7.5985   -1.5797 C.3       1 <0>         0.5590
     25 F1          1.4079   -7.9699   -1.8507 F         1 <0>        -0.1683
     26 F2         -0.5707   -8.6515   -0.9343 F         1 <0>        -0.1665
     27 F3         -0.5704   -7.3040   -2.7792 F         1 <0>        -0.1660
     28 H1         -0.8788    1.8612    0.4581 H         1 <0>         0.0742
     29 H2          0.8964    1.8666    0.5886 H         1 <0>         0.0688
     30 H3          0.1218    1.8722   -1.0139 H         1 <0>         0.0670
     31 H4          0.9725   -0.1558    1.9254 H         1 <0>         0.1296
     32 H5          0.9865   -2.6155    1.9219 H         1 <0>         0.1333
     33 H6         -0.8618   -2.6017   -1.9471 H         1 <0>         0.1296
     34 H7         -0.8753   -0.1421   -1.9199 H         1 <0>         0.1275
     35 H8          0.0770   -4.7242   -2.1540 H         1 <0>         0.1649
     36 H9         -1.4641   -3.1912    2.1196 H         1 <0>         0.1285
     37 H10        -1.4648   -2.4620    4.4670 H         1 <0>         0.1424
     38 H11         1.6222   -5.3066    5.3424 H         1 <0>         0.1423
     39 H12         1.6096   -6.0350    2.9947 H         1 <0>         0.1311
@<TRIPOS>BOND
     1    1    2 1
     2    1   28 1
     3    1   29 1
     4    1   30 1
     5    2    7 ar
     6    2    3 ar
     7    3    4 ar
     8    3   31 1
     9    4    5 ar
    10    4   32 1
    11    5    6 ar
    12    5    8 1
    13    6    7 ar
    14    6   33 1
    15    7   34 1
    16    8   12 1
    17    8    9 2
    18    9   10 1
    19    9   35 1
    20   10   11 2
    21   10   24 1
    22   11   12 1
    23   12   13 1
    24   13   18 ar
    25   13   14 ar
    26   14   15 ar
    27   14   36 1
    28   15   16 ar
    29   15   37 1
    30   16   17 ar
    31   16   19 1
    32   17   18 ar
    33   17   38 1
    34   18   39 1
    35   19   20 2
    36   19   23 1
    37   20   21 1
    38   21   22 2
    39   22   23 1
    40   24   25 1
    41   24   26 1
    42   24   27 1
@<TRIPOS>MOLECULE
CHEMBL85776
   41    41     0     0     0
SMALL
USER_CHARGES

@<TRIPOS>ATOM
      1 C1         -0.0167    1.3781    0.0096 C.ar      1 <0>        -0.1265
      2 C2          1.1709    2.0855    0.0021 C.ar      1 <0>        -0.1181
      3 C3          2.3773    1.4107   -0.0130 C.ar      1 <0>        -0.1192
      4 C4          2.3960    0.0285   -0.0201 C.ar      1 <0>        -0.0814
      5 C5          1.2084   -0.6789   -0.0117 C.ar      1 <0>        -0.1192
      6 C6          0.0021   -0.0041    0.0020 C.ar      1 <0>        -0.1181
      7 C7          3.7112   -0.7071   -0.0376 C.3       1 <0>        -0.0827
      8 C8          4.1714   -0.9633    1.3989 C.3       1 <0>        -0.1130
      9 C9          5.5066   -1.7102    1.3812 C.3       1 <0>        -0.1212
     10 C10         5.9667   -1.9663    2.8177 C.3       1 <0>        -0.1197
     11 C11         7.3020   -2.7132    2.8000 C.3       1 <0>        -0.1210
     12 C12         7.7621   -2.9694    4.2365 C.3       1 <0>        -0.1197
     13 C13         9.0973   -3.7162    4.2187 C.3       1 <0>        -0.1067
     14 C14         9.5575   -3.9724    5.6552 C.3       1 <0>        -0.1266
     15 C15        10.8727   -4.7080    5.6378 C.2       1 <0>         0.5208
     16 O1         11.3908   -4.9988    4.5805 O.2       1 <0>        -0.5189
     17 N1         11.4730   -5.0428    6.7971 N.am      1 <0>        -0.6003
     18 O2         12.7087   -5.7340    6.7807 O.3       1 <0>        -0.3207
     19 H1         -0.9591    1.9053    0.0259 H         1 <0>         0.1207
     20 H2          1.1563    3.1654    0.0076 H         1 <0>         0.1213
     21 H3          3.3051    1.9634   -0.0196 H         1 <0>         0.1205
     22 H4          1.2231   -1.7588   -0.0176 H         1 <0>         0.1205
     23 H5         -0.9258   -0.5567    0.0082 H         1 <0>         0.1213
     24 H6          3.5884   -1.6586   -0.5549 H         1 <0>         0.0718
     25 H7          4.4573   -0.1052   -0.5563 H         1 <0>         0.0719
     26 H8          4.2941   -0.0118    1.9163 H         1 <0>         0.0627
     27 H9          3.4252   -1.5652    1.9176 H         1 <0>         0.0626
     28 H10         5.3838   -2.6617    0.8639 H         1 <0>         0.0624
     29 H11         6.2527   -1.1082    0.8625 H         1 <0>         0.0624
     30 H12         6.0895   -1.0148    3.3350 H         1 <0>         0.0611
     31 H13         5.2206   -2.5682    3.3364 H         1 <0>         0.0611
     32 H14         7.1792   -3.6647    2.2826 H         1 <0>         0.0631
     33 H15         8.0481   -2.1113    2.2813 H         1 <0>         0.0631
     34 H16         7.8849   -2.0178    4.7538 H         1 <0>         0.0635
     35 H17         7.0160   -3.5713    4.7551 H         1 <0>         0.0635
     36 H18         8.9746   -4.6678    3.7014 H         1 <0>         0.0726
     37 H19         9.8435   -3.1143    3.7001 H         1 <0>         0.0726
     38 H20         9.6803   -3.0209    6.1726 H         1 <0>         0.0990
     39 H21         8.8114   -4.5743    6.1739 H         1 <0>         0.0990
     40 H22        11.0585   -4.8103    7.6427 H         1 <0>         0.4081
     41 H23        13.0612   -5.9305    7.6595 H         1 <0>         0.3876
@<TRIPOS>BOND
     1    1    6 ar
     2    1    2 ar
     3    1   19 1
     4    2    3 ar
     5    2   20 1
     6    3    4 ar
     7    3   21 1
     8    4    5 ar
     9    4    7 1
    10    5    6 ar
    11    5   22 1
    12    6   23 1
    13    7    8 1
    14    7   24 1
    15    7   25 1
    16    8    9 1
    17    8   26 1
    18    8   27 1
    19    9   10 1
    20    9   28 1
    21    9   29 1
    22   10   11 1
    23   10   30 1
    24   10   31 1
    25   11   12 1
    26   11   32 1
    27   11   33 1
    28   12   13 1
    29   12   34 1
    30   12   35 1
    31   13   14 1
    32   13   36 1
    33   13   37 1
    34   14   15 1
    35   14   38 1
    36   14   39 1
    37   15   16 2
    38   15   17 am
    39   17   18 1
    40   17   40 1
    41   18   41 1
@<TRIPOS>MOLECULE
CHEMBL16434
   52    53     0     0     0
SMALL
USER_CHARGES

@<TRIPOS>ATOM
      1 C1          1.1668    1.3246    0.4809 C.3       1 <0>        -0.1501
      2 C2          0.9500   -0.1843    0.3503 C.3       1 <0>        -0.0218
      3 C3          1.8084   -0.9144    1.3852 C.3       1 <0>        -0.1421
      4 C4         -0.5255   -0.5103    0.5904 C.3       1 <0>        -0.1424
      5 C5          1.3442   -0.6305   -1.0341 C.ar      1 <0>        -0.0897
      6 C6          1.8188    0.2882   -1.9428 C.ar      1 <0>        -0.0857
      7 C7          2.1848   -0.1279   -3.2290 C.ar      1 <0>        -0.0928
      8 C8          2.0656   -1.4775   -3.5832 C.ar      1 <0>        -0.0775
      9 C9          1.5897   -2.3876   -2.6664 C.ar      1 <0>        -0.0951
     10 C10         1.2332   -1.9699   -1.3893 C.ar      1 <0>         0.1381
     11 O1          0.7702   -2.8727   -0.4872 O.3       1 <0>        -0.4830
     12 C11         1.4603   -3.8402   -3.0462 C.3       1 <0>        -0.0209
     13 C12         1.9206   -4.0321   -4.4927 C.3       1 <0>        -0.1490
     14 C13         2.3301   -4.6896   -2.1173 C.3       1 <0>        -0.1427
     15 C14        -0.0010   -4.2736   -2.9143 C.3       1 <0>        -0.1426
     16 C15         2.6913    0.8476   -4.2028 C.2       1 <0>         0.0508
     17 C16         2.9646    2.1176   -3.8115 C.2       1 <0>        -0.2429
     18 C17         3.3228    3.3045   -4.6240 C.2       1 <0>         0.5452
     19 O2          3.4147    3.2474   -5.8402 O.2       1 <0>        -0.4805
     20 N1          3.5354    4.4195   -3.9667 N.2       1 <0>        -0.7131
     21 C18         3.4377    4.4934   -2.6412 C.2       1 <0>         0.4615
     22 S1          2.9859    2.8305   -2.1714 S.3       1 <0>         0.0058
     23 N2          3.6273    5.5603   -1.8501 N.2       1 <0>        -0.5842
     24 C19         3.8640    6.7466   -2.3850 C.2       1 <0>         0.7042
     25 N3          4.0681    6.8605   -3.7301 N.pl3     1 <0>        -0.8323
     26 N4          3.9043    7.8572   -1.5920 N.pl3     1 <0>        -0.8093
     27 H1          2.2179    1.5568    0.3099 H         1 <0>         0.0615
     28 H2          0.5552    1.8447   -0.2564 H         1 <0>         0.0591
     29 H3          0.8816    1.6473    1.4823 H         1 <0>         0.0626
     30 H4          1.5233   -0.5917    2.3865 H         1 <0>         0.0562
     31 H5          1.6540   -1.9893    1.2922 H         1 <0>         0.0749
     32 H6          2.8596   -0.6822    1.2142 H         1 <0>         0.0524
     33 H7         -1.1371    0.0098   -0.1469 H         1 <0>         0.0548
     34 H8         -0.6799   -1.5852    0.4973 H         1 <0>         0.0579
     35 H9         -0.8107   -0.1875    1.5917 H         1 <0>         0.0628
     36 H10         1.9085    1.3278   -1.6646 H         1 <0>         0.1429
     37 H11         2.3460   -1.8037   -4.5738 H         1 <0>         0.1388
     38 H12        -0.1893   -2.9914   -0.5065 H         1 <0>         0.3850
     39 H13         2.9617   -3.7233   -4.5867 H         1 <0>         0.0598
     40 H14         1.8271   -5.0827   -4.7674 H         1 <0>         0.0612
     41 H15         1.3010   -3.4269   -5.1545 H         1 <0>         0.0592
     42 H16         2.0022   -4.5529   -1.0868 H         1 <0>         0.0755
     43 H17         2.2365   -5.7403   -2.3920 H         1 <0>         0.0554
     44 H18         3.3712   -4.3808   -2.2113 H         1 <0>         0.0519
     45 H19        -0.6207   -3.6684   -3.5761 H         1 <0>         0.0552
     46 H20        -0.0946   -5.3243   -3.1890 H         1 <0>         0.0620
     47 H21        -0.3289   -4.1369   -1.8838 H         1 <0>         0.0578
     48 H22         2.8462    0.5541   -5.2305 H         1 <0>         0.1573
     49 H23         3.9067    6.1007   -4.3112 H         1 <0>         0.4416
     50 H24         4.3744    7.7011   -4.1048 H         1 <0>         0.3968
     51 H25         3.7593    7.7763   -0.6363 H         1 <0>         0.4307
     52 H26         4.0779    8.7272   -1.9843 H         1 <0>         0.4188
@<TRIPOS>BOND
     1    1    2 1
     2    1   27 1
     3    1   28 1
     4    1   29 1
     5    2    3 1
     6    2    4 1
     7    2    5 1
     8    3   30 1
     9    3   31 1
    10    3   32 1
    11    4   33 1
    12    4   34 1
    13    4   35 1
    14    5   10 ar
    15    5    6 ar
    16    6    7 ar
    17    6   36 1
    18    7    8 ar
    19    7   16 1
    20    8    9 ar
    21    8   37 1
    22    9   10 ar
    23    9   12 1
    24   10   11 1
    25   11   38 1
    26   12   13 1
    27   12   14 1
    28   12   15 1
    29   13   39 1
    30   13   40 1
    31   13   41 1
    32   14   42 1
    33   14   43 1
    34   14   44 1
    35   15   45 1
    36   15   46 1
    37   15   47 1
    38   16   17 2
    39   16   48 1
    40   17   22 1
    41   17   18 1
    42   18   19 2
    43   18   20 1
    44   20   21 2
    45   21   22 1
    46   21   23 1
    47   23   24 2
    48   24   25 1
    49   24   26 1
    50   25   49 1
    51   25   50 1
    52   26   51 1
    53   26   52 1
@<TRIPOS>MOLECULE
CHEMBL16434__1
   51    52     0     0     0
SMALL
USER_CHARGES

@<TRIPOS>ATOM
      1 C1          1.1668    1.3246    0.4809 C.3       1 <0>        -0.1505
      2 C2          0.9500   -0.1843    0.3503 C.3       1 <0>        -0.0210
      3 C3          1.8084   -0.9144    1.3852 C.3       1 <0>        -0.1397
      4 C4         -0.5255   -0.5102    0.5904 C.3       1 <0>        -0.1399
      5 C5          1.3442   -0.6305   -1.0341 C.ar      1 <0>        -0.0867
      6 C6          1.8188    0.2882   -1.9428 C.ar      1 <0>        -0.0982
      7 C7          2.1848   -0.1279   -3.2290 C.ar      1 <0>        -0.0643
      8 C8          2.0655   -1.4775   -3.5832 C.ar      1 <0>        -0.0935
      9 C9          1.5897   -2.3875   -2.6664 C.ar      1 <0>        -0.0975
     10 C10         1.2332   -1.9699   -1.3892 C.ar      1 <0>         0.1170
     11 O1          0.7702   -2.8727   -0.4872 O.3       1 <0>        -0.4849
     12 C11         1.4603   -3.8402   -3.0462 C.3       1 <0>        -0.0188
     13 C12         1.9206   -4.0321   -4.4927 C.3       1 <0>        -0.1471
     14 C13         2.3301   -4.6896   -2.1173 C.3       1 <0>        -0.1408
     15 C14        -0.0011   -4.2736   -2.9143 C.3       1 <0>        -0.1407
     16 C15         2.6913    0.8476   -4.2028 C.2       1 <0>        -0.0158
     17 C16         2.9646    2.1176   -3.8115 C.2       1 <0>        -0.1910
     18 C17         3.3228    3.3045   -4.6240 C.2       1 <0>         0.5360
     19 O2          3.4147    3.2474   -5.8402 O.2       1 <0>        -0.5379
     20 N1          3.5354    4.4195   -3.9667 N.2       1 <0>        -0.7286
     21 C18         3.4377    4.4934   -2.6412 C.2       1 <0>         0.4449
     22 S1          2.9859    2.8305   -2.1714 S.3       1 <0>        -0.0705
     23 N2          3.6273    5.5603   -1.8501 N.2       1 <0>        -0.5387
     24 C19         3.8640    6.7466   -2.3850 C.2       1 <0>         0.5987
     25 N3          4.0681    6.8605   -3.7301 N.pl3     1 <0>        -0.9066
     26 N4          3.9043    7.8572   -1.5920 N.2       1 <0>        -0.8332
     27 H1          2.2179    1.5568    0.3099 H         1 <0>         0.0655
     28 H2          0.5552    1.8447   -0.2563 H         1 <0>         0.0608
     29 H3          0.8816    1.6473    1.4823 H         1 <0>         0.0586
     30 H4          1.5233   -0.5917    2.3865 H         1 <0>         0.0527
     31 H5          1.6540   -1.9893    1.2922 H         1 <0>         0.0722
     32 H6          2.8596   -0.6822    1.2142 H         1 <0>         0.0523
     33 H7         -1.1371    0.0098   -0.1469 H         1 <0>         0.0540
     34 H8         -0.6800   -1.5852    0.4973 H         1 <0>         0.0554
     35 H9         -0.8107   -0.1875    1.5917 H         1 <0>         0.0592
     36 H10         1.9084    1.3278   -1.6646 H         1 <0>         0.1521
     37 H11         2.3460   -1.8037   -4.5738 H         1 <0>         0.1329
     38 H12        -0.1893   -2.9914   -0.5065 H         1 <0>         0.3778
     39 H13         2.9617   -3.7233   -4.5867 H         1 <0>         0.0597
     40 H14         1.8270   -5.0827   -4.7674 H         1 <0>         0.0565
     41 H15         1.3010   -3.4269   -5.1545 H         1 <0>         0.0589
     42 H16         2.0022   -4.5529   -1.0868 H         1 <0>         0.0750
     43 H17         2.2365   -5.7402   -2.3920 H         1 <0>         0.0507
     44 H18         3.3712   -4.3808   -2.2113 H         1 <0>         0.0512
     45 H19        -0.6207   -3.6684   -3.5761 H         1 <0>         0.0542
     46 H20        -0.0946   -5.3242   -3.1890 H         1 <0>         0.0574
     47 H21        -0.3290   -4.1369   -1.8838 H         1 <0>         0.0576
     48 H22         2.8462    0.5541   -5.2305 H         1 <0>         0.1470
     49 H23         3.9067    6.1007   -4.3112 H         1 <0>         0.4129
     50 H24         4.0779    8.7272   -1.9843 H         1 <0>         0.3057
     51 H25         4.3744    7.7011   -4.1048 H         1 <0>         0.3691
@<TRIPOS>BOND
     1    1    2 1
     2    1   27 1
     3    1   28 1
     4    1   29 1
     5    2    3 1
     6    2    4 1
     7    2    5 1
     8    3   30 1
     9    3   31 1
    10    3   32 1
    11    4   33 1
    12    4   34 1
    13    4   35 1
    14    5   10 ar
    15    5    6 ar
    16    6    7 ar
    17    6   36 1
    18    7    8 ar
    19    7   16 1
    20    8    9 ar
    21    8   37 1
    22    9   10 ar
    23    9   12 1
    24   10   11 1
    25   11   38 1
    26   12   13 1
    27   12   14 1
    28   12   15 1
    29   13   39 1
    30   13   40 1
    31   13   41 1
    32   14   42 1
    33   14   43 1
    34   14   44 1
    35   15   45 1
    36   15   46 1
    37   15   47 1
    38   16   17 2
    39   16   48 1
    40   17   22 1
    41   17   18 1
    42   18   19 2
    43   18   20 1
    44   20   21 2
    45   21   22 1
    46   21   23 1
    47   23   24 2
    48   24   25 1
    49   24   26 1
    50   25   49 1
    51   25   51 1
    52   26   50 1
@<TRIPOS>MOLECULE
CHEMBL16434__2
   51    52     0     0     0
SMALL
USER_CHARGES

@<TRIPOS>ATOM
      1 C1          0.7460    1.4942    0.3667 C.3       1 <0>        -0.1491
      2 C2          0.4465    0.0005    0.2253 C.3       1 <0>        -0.0203
      3 C3          1.2222   -0.7782    1.2897 C.3       1 <0>        -0.1391
      4 C4         -1.0533   -0.2387    0.4103 C.3       1 <0>        -0.1396
      5 C5          0.8648   -0.4683   -1.1445 C.ar      1 <0>        -0.0877
      6 C6          1.4254    0.4209   -2.0334 C.ar      1 <0>        -0.1020
      7 C7          1.8136   -0.0161   -3.3060 C.ar      1 <0>        -0.0579
      8 C8          1.6289   -1.3565   -3.6669 C.ar      1 <0>        -0.0970
      9 C9          1.0673   -2.2370   -2.7701 C.ar      1 <0>        -0.0978
     10 C10         0.6890   -1.7990   -1.5061 C.ar      1 <0>         0.1119
     11 O1          0.1411   -2.6730   -0.6234 O.3       1 <0>        -0.4855
     12 C11         0.8674   -3.6797   -3.1572 C.3       1 <0>        -0.0185
     13 C12         1.3687   -3.8985   -4.5861 C.3       1 <0>        -0.1468
     14 C13         1.6513   -4.5783   -2.1985 C.3       1 <0>        -0.1403
     15 C14        -0.6206   -4.0270   -3.0799 C.3       1 <0>        -0.1403
     16 C15         2.4117    0.9279   -4.2586 C.2       1 <0>        -0.0314
     17 C16         2.7462    2.1790   -3.8545 C.2       1 <0>        -0.1786
     18 C17         3.2047    3.3425   -4.6504 C.2       1 <0>         0.5211
     19 O2          3.3375    3.2802   -5.8626 O.2       1 <0>        -0.5362
     20 N1          3.4596    4.4425   -3.9831 N.2       1 <0>        -0.6397
     21 C18         3.3180    4.5219   -2.6619 C.2       1 <0>         0.4768
     22 S1          2.7502    2.8890   -2.2130 S.3       1 <0>        -0.1224
     23 N2          3.5422    5.5752   -1.8617 N.2       1 <0>        -0.5887
     24 C19         3.9594    6.7199   -2.3766 C.2       1 <0>         0.5676
     25 N3          4.1619    6.8296   -3.7223 N.2       1 <0>        -0.7918
     26 N4          4.1876    7.7918   -1.5623 N.pl3     1 <0>        -0.8798
     27 H1          1.8145    1.6646    0.2350 H         1 <0>         0.0660
     28 H2          0.1934    2.0489   -0.3916 H         1 <0>         0.0608
     29 H3          0.4435    1.8332    1.3575 H         1 <0>         0.0560
     30 H4          0.9197   -0.4392    2.2805 H         1 <0>         0.0513
     31 H5          1.0088   -1.8424    1.1890 H         1 <0>         0.0720
     32 H6          2.2907   -0.6078    1.1579 H         1 <0>         0.0520
     33 H7         -1.6059    0.3161   -0.3480 H         1 <0>         0.0538
     34 H8         -1.2667   -1.3028    0.3095 H         1 <0>         0.0554
     35 H9         -1.3558    0.1003    1.4010 H         1 <0>         0.0580
     36 H10         1.5652    1.4536   -1.7500 H         1 <0>         0.1555
     37 H11         1.9262   -1.6988   -4.6472 H         1 <0>         0.1317
     38 H12        -0.8223   -2.7355   -0.6783 H         1 <0>         0.3763
     39 H13         2.4288   -3.6510   -4.6411 H         1 <0>         0.0597
     40 H14         1.2242   -4.9419   -4.8661 H         1 <0>         0.0558
     41 H15         0.8103   -3.2583   -5.2690 H         1 <0>         0.0589
     42 H16         1.2942   -4.4224   -1.1805 H         1 <0>         0.0747
     43 H17         1.5068   -5.6217   -2.4785 H         1 <0>         0.0500
     44 H18         2.7114   -4.3308   -2.2535 H         1 <0>         0.0510
     45 H19        -1.1791   -3.3869   -3.7629 H         1 <0>         0.0540
     46 H20        -0.7652   -5.0705   -3.3599 H         1 <0>         0.0567
     47 H21        -0.9777   -3.8712   -2.0620 H         1 <0>         0.0574
     48 H22         2.5852    0.6262   -5.2810 H         1 <0>         0.1447
     49 H23         4.0437    7.7138   -0.6062 H         1 <0>         0.3844
     50 H24         4.4936    8.6312   -1.9399 H         1 <0>         0.3909
     51 H25         4.4679    7.6690   -4.0999 H         1 <0>         0.2863
@<TRIPOS>BOND
     1    1    2 1
     2    1   27 1
     3    1   28 1
     4    1   29 1
     5    2    3 1
     6    2    4 1
     7    2    5 1
     8    3   30 1
     9    3   31 1
    10    3   32 1
    11    4   33 1
    12    4   34 1
    13    4   35 1
    14    5   10 ar
    15    5    6 ar
    16    6    7 ar
    17    6   36 1
    18    7    8 ar
    19    7   16 1
    20    8    9 ar
    21    8   37 1
    22    9   10 ar
    23    9   12 1
    24   10   11 1
    25   11   38 1
    26   12   13 1
    27   12   14 1
    28   12   15 1
    29   13   39 1
    30   13   40 1
    31   13   41 1
    32   14   42 1
    33   14   43 1
    34   14   44 1
    35   15   45 1
    36   15   46 1
    37   15   47 1
    38   16   17 2
    39   16   48 1
    40   17   22 1
    41   17   18 1
    42   18   19 2
    43   18   20 1
    44   20   21 2
    45   21   22 1
    46   21   23 1
    47   23   24 2
    48   24   25 1
    49   24   26 1
    50   25   51 1
    51   26   49 1
    52   26   50 1
@<TRIPOS>MOLECULE
CHEMBL92443
   43    45     0     0     0
SMALL
USER_CHARGES

@<TRIPOS>ATOM
      1 C1         -0.0187    1.5258    0.0104 C.3       1 <0>        -0.1356
      2 C2          0.0021   -0.0041    0.0020 C.3       1 <0>         0.0044
      3 C3          1.0683   -0.5801   -0.8966 C.2       1 <0>        -0.1100
      4 C4          1.3451   -0.6066   -2.1966 C.2       1 <0>        -0.1358
      5 C5          1.6574   -1.1004    0.3514 C.2       1 <0>        -0.0407
      6 C6          0.7147   -0.5964    1.1927 C.2       1 <0>        -0.1006
      7 C7          0.4874   -0.6188    2.6448 C.ar      1 <0>         0.0432
      8 C8         -0.6299   -1.2759    3.1718 C.ar      1 <0>        -0.1230
      9 C9         -0.8359   -1.2921    4.5350 C.ar      1 <0>        -0.0211
     10 C10         0.0589   -0.6608    5.3815 C.ar      1 <0>        -0.6598
     11 C11         1.1664   -0.0082    4.8682 C.ar      1 <0>        -0.0206
     12 C12         1.3902    0.0120    3.5079 C.ar      1 <0>        -0.1222
     13 S1         -0.2136   -0.6876    7.1221 S.o2      1 <0>         2.4995
     14 O1          0.4402    0.4762    7.6094 O.2       1 <0>        -0.9365
     15 O2         -1.6186   -0.8434    7.2668 O.2       1 <0>        -0.9365
     16 C13         0.6434   -2.1762    7.7053 C.3       1 <0>        -0.6505
     17 C14         2.8735   -1.9062    0.6049 C.ar      1 <0>        -0.0422
     18 C15         3.9321   -1.3659    1.3355 C.ar      1 <0>        -0.1012
     19 C16         5.0626   -2.1218    1.5682 C.ar      1 <0>        -0.1188
     20 C17         5.1477   -3.4131    1.0788 C.ar      1 <0>        -0.1154
     21 C18         4.1015   -3.9545    0.3532 C.ar      1 <0>        -0.1188
     22 C19         2.9631   -3.2109    0.1190 C.ar      1 <0>        -0.1010
     23 C20        -1.3833   -0.6088   -0.2348 C.3       1 <0>        -0.1371
     24 H1          1.0039    1.9031    0.0027 H         1 <0>         0.0601
     25 H2         -0.5459    1.8868   -0.8726 H         1 <0>         0.0647
     26 H3         -0.5289    1.8773    0.9072 H         1 <0>         0.0629
     27 H4          0.6917   -0.1091   -2.8981 H         1 <0>         0.1164
     28 H5          2.2233   -1.1256   -2.5512 H         1 <0>         0.1128
     29 H6         -1.3292   -1.7686    2.5126 H         1 <0>         0.1354
     30 H7         -1.6980   -1.7985    4.9433 H         1 <0>         0.1456
     31 H8          1.8597    0.4822    5.5354 H         1 <0>         0.1454
     32 H9          2.2575    0.5172    3.1093 H         1 <0>         0.1330
     33 H10         1.7039   -2.1028    7.4643 H         1 <0>         0.1316
     34 H11         0.5215   -2.2662    8.7847 H         1 <0>         0.1339
     35 H12         0.2198   -3.0540    7.2173 H         1 <0>         0.1316
     36 H13         3.8670   -0.3579    1.7177 H         1 <0>         0.1208
     37 H14         5.8829   -1.7045    2.1334 H         1 <0>         0.1253
     38 H15         6.0347   -4.0008    1.2637 H         1 <0>         0.1238
     39 H16         4.1742   -4.9628   -0.0268 H         1 <0>         0.1252
     40 H17         2.1451   -3.6363   -0.4435 H         1 <0>         0.1225
     41 H18        -1.8380   -0.1438   -1.1095 H         1 <0>         0.0651
     42 H19        -1.2876   -1.6816   -0.4021 H         1 <0>         0.0604
     43 H20        -2.0111   -0.4318    0.6385 H         1 <0>         0.0638
@<TRIPOS>BOND
     1    1    2 1
     2    1   24 1
     3    1   25 1
     4    1   26 1
     5    2    6 1
     6    2    3 1
     7    2   23 1
     8    3    4 2
     9    3    5 1
    10    4   27 1
    11    4   28 1
    12    5    6 2
    13    5   17 1
    14    6    7 1
    15    7   12 ar
    16    7    8 ar
    17    8    9 ar
    18    8   29 1
    19    9   10 ar
    20    9   30 1
    21   10   11 ar
    22   10   13 1
    23   11   12 ar
    24   11   31 1
    25   12   32 1
    26   13   14 2
    27   13   15 2
    28   13   16 1
    29   16   33 1
    30   16   34 1
    31   16   35 1
    32   17   22 ar
    33   17   18 ar
    34   18   19 ar
    35   18   36 1
    36   19   20 ar
    37   19   37 1
    38   20   21 ar
    39   20   38 1
    40   21   22 ar
    41   21   39 1
    42   22   40 1
    43   23   41 1
    44   23   42 1
    45   23   43 1
@<TRIPOS>MOLECULE
CHEMBL64759
   59    61     0     0     0
SMALL
USER_CHARGES

@<TRIPOS>ATOM
      1 C1         -1.4227    1.0099   -1.1326 C.3       1 <0>        -0.1493
      2 C2         -1.2057   -0.5046   -1.1468 C.3       1 <0>        -0.0216
      3 C3         -0.8923   -0.9882    0.2705 C.3       1 <0>        -0.1426
      4 C4         -2.4728   -1.1965   -1.6533 C.3       1 <0>        -0.1430
      5 C5         -0.0527   -0.8383   -2.0580 C.ar      1 <0>        -0.0964
      6 C6          0.6210    0.1701   -2.7133 C.ar      1 <0>        -0.0791
      7 C7          1.6888   -0.1400   -3.5570 C.ar      1 <0>        -0.0995
      8 C8          2.0702   -1.4710   -3.7337 C.ar      1 <0>        -0.1007
      9 C9          1.3915   -2.4739   -3.0748 C.ar      1 <0>        -0.0981
     10 C10         0.3333   -2.1608   -2.2319 C.ar      1 <0>         0.1416
     11 O1         -0.3296   -3.1515   -1.5800 O.3       1 <0>        -0.4841
     12 C11         1.8020   -3.9113   -3.2652 C.3       1 <0>        -0.0213
     13 C12         2.9872   -3.9796   -4.2304 C.3       1 <0>        -0.1516
     14 C13         2.2077   -4.5088   -1.9164 C.3       1 <0>        -0.1429
     15 C14         0.6281   -4.7049   -3.8422 C.3       1 <0>        -0.1434
     16 C15         2.4134    0.9379   -4.2618 C.2       1 <0>         0.0956
     17 C16         3.5387    0.6674   -4.9089 C.2       1 <0>        -0.6921
     18 C17         4.3707   -0.6085   -4.8948 C.3       1 <0>        -0.1091
     19 C18         5.8300   -0.2157   -5.1333 C.3       1 <0>         0.0726
     20 N1          5.9452    0.9137   -6.0646 N.pl3     1 <0>        -0.9285
     21 S1          4.4663    1.6986   -6.0268 S.o2      1 <0>         2.6471
     22 O2          4.6668    2.9500   -5.3841 O.2       1 <0>        -0.9461
     23 O3          3.8785    1.5671   -7.3138 O.2       1 <0>        -0.9372
     24 C19         7.0607    1.2606   -6.8309 C.ar      1 <0>         0.1606
     25 C20         7.2487    2.5756   -7.2506 C.ar      1 <0>        -0.1330
     26 C21         8.3699    2.8702   -8.0084 C.ar      1 <0>        -0.1261
     27 C22         9.2589    1.8584   -8.3211 C.ar      1 <0>         0.0724
     28 N2          9.0522    0.6232   -7.9085 N.ar      1 <0>        -0.4530
     29 C23         8.0016    0.3006   -7.1807 C.ar      1 <0>         0.0737
     30 H1         -0.5200    1.5029   -0.7718 H         1 <0>         0.0596
     31 H2         -1.6460    1.3545   -2.1423 H         1 <0>         0.0590
     32 H3         -2.2566    1.2513   -0.4736 H         1 <0>         0.0621
     33 H4         -1.7263   -0.7468    0.9295 H         1 <0>         0.0563
     34 H5         -0.7378   -2.0671    0.2603 H         1 <0>         0.0751
     35 H6          0.0104   -0.4952    0.6313 H         1 <0>         0.0517
     36 H7         -2.6961   -0.8520   -2.6630 H         1 <0>         0.0552
     37 H8         -2.3183   -2.2755   -1.6634 H         1 <0>         0.0580
     38 H9         -3.3068   -0.9551   -0.9943 H         1 <0>         0.0628
     39 H10         0.3228    1.1988   -2.5744 H         1 <0>         0.1382
     40 H11         2.8957   -1.7150   -4.3860 H         1 <0>         0.1532
     41 H12        -1.0804   -3.5119   -2.0714 H         1 <0>         0.3862
     42 H13         3.8236   -3.4142   -3.8194 H         1 <0>         0.0581
     43 H14         3.2842   -5.0193   -4.3681 H         1 <0>         0.0644
     44 H15         2.6982   -3.5540   -5.1914 H         1 <0>         0.0588
     45 H16         1.3634   -4.4601   -1.2288 H         1 <0>         0.0758
     46 H17         2.5047   -5.5485   -2.0541 H         1 <0>         0.0565
     47 H18         3.0441   -3.9434   -1.5054 H         1 <0>         0.0515
     48 H19         0.3391   -4.2792   -4.8031 H         1 <0>         0.0554
     49 H20         0.9250   -5.7446   -3.9799 H         1 <0>         0.0632
     50 H21        -0.2163   -4.6562   -3.1545 H         1 <0>         0.0582
     51 H22         2.0264    1.9461   -4.2498 H         1 <0>         0.1438
     52 H23         4.2743   -1.1017   -3.9276 H         1 <0>         0.1248
     53 H24         4.0342   -1.2776   -5.6867 H         1 <0>         0.1051
     54 H25         6.2837    0.0608   -4.1816 H         1 <0>         0.0916
     55 H26         6.3657   -1.0714   -5.5445 H         1 <0>         0.1036
     56 H27         6.5376    3.3461   -6.9918 H         1 <0>         0.1380
     57 H28         8.5477    3.8788   -8.3514 H         1 <0>         0.1462
     58 H29        10.1345    2.0828   -8.9121 H         1 <0>         0.1631
     59 H30         7.8686   -0.7211   -6.8572 H         1 <0>         0.1595
@<TRIPOS>BOND
     1    1    2 1
     2    1   30 1
     3    1   31 1
     4    1   32 1
     5    2    3 1
     6    2    4 1
     7    2    5 1
     8    3   33 1
     9    3   34 1
    10    3   35 1
    11    4   36 1
    12    4   37 1
    13    4   38 1
    14    5   10 ar
    15    5    6 ar
    16    6    7 ar
    17    6   39 1
    18    7    8 ar
    19    7   16 1
    20    8    9 ar
    21    8   40 1
    22    9   10 ar
    23    9   12 1
    24   10   11 1
    25   11   41 1
    26   12   13 1
    27   12   14 1
    28   12   15 1
    29   13   42 1
    30   13   43 1
    31   13   44 1
    32   14   45 1
    33   14   46 1
    34   14   47 1
    35   15   48 1
    36   15   49 1
    37   15   50 1
    38   16   17 2
    39   16   51 1
    40   17   21 1
    41   17   18 1
    42   18   19 1
    43   18   52 1
    44   18   53 1
    45   19   20 1
    46   19   54 1
    47   19   55 1
    48   20   21 1
    49   20   24 1
    50   21   22 2
    51   21   23 2
    52   24   29 ar
    53   24   25 ar
    54   25   26 ar
    55   25   56 1
    56   26   27 ar
    57   26   57 1
    58   27   28 ar
    59   27   58 1
    60   28   29 ar
    61   29   59 1
@<TRIPOS>MOLECULE
CHEMBL301586
   33    35     0     0     0
SMALL
USER_CHARGES

@<TRIPOS>ATOM
      1 C1          0.0787    1.5140   -0.3782 C.ar      1 <0>        -0.1613
      2 C2          1.2522    2.1640   -0.0354 C.ar      1 <0>        -0.0769
      3 C3          2.4342    1.4579    0.0786 C.ar      1 <0>        -0.1903
      4 C4          2.4514    0.0895   -0.1506 C.ar      1 <0>         0.2245
      5 C5          1.2646   -0.5715   -0.4979 C.ar      1 <0>        -0.0494
      6 C6          0.0782    0.1540   -0.6095 C.ar      1 <0>        -0.0716
      7 C7          1.2706   -2.0280   -0.7448 C.2       1 <0>         0.1660
      8 N1          0.1880   -2.8034   -1.0910 N.pl3     1 <0>        -0.5949
      9 C8          0.6703   -4.0761   -1.2132 C.2       1 <0>         0.3823
     10 N2          1.9570   -4.0316   -0.9516 N.2       1 <0>        -0.3319
     11 N3          2.3112   -2.8263   -0.6808 N.2       1 <0>        -0.3017
     12 S1         -0.2601   -5.5098   -1.6413 S.3       1 <0>        -0.7997
     13 N4          3.6436   -0.6250   -0.0364 N.pl3     1 <0>        -0.6702
     14 C9          4.7871    0.0001    0.4669 C.ar      1 <0>         0.1803
     15 C10         4.6918    0.8474    1.5641 C.ar      1 <0>        -0.1272
     16 C11         5.8240    1.4636    2.0589 C.ar      1 <0>        -0.0942
     17 C12         7.0520    1.2386    1.4635 C.ar      1 <0>        -0.1054
     18 C13         7.1504    0.3964    0.3713 C.ar      1 <0>        -0.1552
     19 C14         6.0230   -0.2284   -0.1248 C.ar      1 <0>        -0.1052
     20 C15         8.4904    0.1552   -0.2746 C.3       1 <0>         0.5089
     21 F1          9.4727    0.8861    0.4021 F         1 <0>        -0.1785
     22 F2          8.7987   -1.2081   -0.2138 F         1 <0>        -0.1747
     23 F3          8.4437    0.5635   -1.6119 F         1 <0>        -0.1764
     24 H1         -0.8413    2.0736   -0.4606 H         1 <0>         0.1232
     25 H2          1.2436    3.2290    0.1435 H         1 <0>         0.1236
     26 H3          3.3458    1.9715    0.3461 H         1 <0>         0.1326
     27 H4         -0.8398   -0.3486   -0.8764 H         1 <0>         0.1205
     28 H5          3.6789   -1.5560   -0.3065 H         1 <0>         0.4350
     29 H6          3.7331    1.0240    2.0290 H         1 <0>         0.1388
     30 H7          5.7506    2.1223    2.9117 H         1 <0>         0.1364
     31 H8          7.9359    1.7222    1.8524 H         1 <0>         0.1365
     32 H9          6.1013   -0.8899   -0.9749 H         1 <0>         0.1373
     33 H10        -0.7269   -2.5083   -1.2209 H         1 <0>         0.4188
@<TRIPOS>BOND
     1    1    6 ar
     2    1    2 ar
     3    1   24 1
     4    2    3 ar
     5    2   25 1
     6    3    4 ar
     7    3   26 1
     8    4    5 ar
     9    4   13 1
    10    5    6 ar
    11    5    7 1
    12    6   27 1
    13    7    8 1
    14    7   11 2
    15    8    9 1
    16    8   33 1
    17    9   12 1
    18    9   10 2
    19   10   11 1
    20   13   14 1
    21   13   28 1
    22   14   19 ar
    23   14   15 ar
    24   15   16 ar
    25   15   29 1
    26   16   17 ar
    27   16   30 1
    28   17   18 ar
    29   17   31 1
    30   18   19 ar
    31   18   20 1
    32   19   32 1
    33   20   21 1
    34   20   22 1
    35   20   23 1
@<TRIPOS>MOLECULE
CHEMBL284705
   33    35     0     0     0
SMALL
USER_CHARGES

@<TRIPOS>ATOM
      1 C1         -0.0187    1.5258    0.0104 C.3       1 <0>        -0.1127
      2 C2          0.0021   -0.0041    0.0020 C.3       1 <0>        -0.1341
      3 C3         -1.4117   -0.5257    0.0127 C.ar      1 <0>        -0.0102
      4 C4         -2.2583   -0.2035    1.0573 C.ar      1 <0>        -0.0989
      5 C5         -3.5521   -0.6916    1.0842 C.ar      1 <0>        -0.1119
      6 C6         -4.0016   -1.5014    0.0512 C.ar      1 <0>         0.0442
      7 C7         -3.1625   -1.7970   -1.0054 C.ar      1 <0>         0.0663
      8 C8         -1.8623   -1.3218   -1.0260 C.ar      1 <0>        -0.1091
      9 O1         -3.6691   -2.5095   -2.0367 O.3       1 <0>        -0.2657
     10 C9         -4.0782   -3.7890   -1.8970 C.ar      1 <0>         0.1340
     11 C10        -3.6523   -4.6755   -2.8923 C.ar      1 <0>        -0.1346
     12 C11        -4.0065   -6.0048   -2.8535 C.ar      1 <0>        -0.0960
     13 C12        -4.7946   -6.4699   -1.8164 C.ar      1 <0>        -0.1378
     14 C13        -5.2163   -5.6009   -0.8356 C.ar      1 <0>        -0.0957
     15 C14        -4.8630   -4.2516   -0.8649 C.ar      1 <0>        -0.1706
     16 C15        -5.3969   -3.4188    0.2717 C.3       1 <0>         0.1127
     17 O2         -5.2465   -2.0289    0.0838 O.3       1 <0>        -0.3184
     18 C16         0.7309   -0.5033    1.2229 C.2       1 <0>         0.5026
     19 O3          1.1912    0.2909    2.0254 O.co2     1 <0>        -0.6893
     20 O4          0.8604   -1.7014    1.4082 O.co2     1 <0>        -0.6928
     21 H1          1.0039    1.9031    0.0027 H         1 <0>         0.0571
     22 H2         -0.5459    1.8868   -0.8726 H         1 <0>         0.0351
     23 H3         -0.5289    1.8773    0.9072 H         1 <0>         0.0548
     24 H4          0.5123   -0.3556   -0.8948 H         1 <0>         0.0738
     25 H5         -1.9074    0.4324    1.8566 H         1 <0>         0.1342
     26 H6         -4.2090   -0.4434    1.9048 H         1 <0>         0.1330
     27 H7         -1.2036   -1.5737   -1.8440 H         1 <0>         0.1331
     28 H8         -3.0369   -4.3117   -3.7019 H         1 <0>         0.1328
     29 H9         -3.6720   -6.6797   -3.6274 H         1 <0>         0.1306
     30 H10        -5.0783   -7.5112   -1.7763 H         1 <0>         0.1267
     31 H11        -5.8314   -5.9704   -0.0285 H         1 <0>         0.1263
     32 H12        -6.4570   -3.6399    0.3962 H         1 <0>         0.1145
     33 H13        -4.8762   -3.7040    1.1858 H         1 <0>         0.0661
@<TRIPOS>BOND
     1    1    2 1
     2    1   21 1
     3    1   22 1
     4    1   23 1
     5    2    3 1
     6    2   18 1
     7    2   24 1
     8    3    8 ar
     9    3    4 ar
    10    4    5 ar
    11    4   25 1
    12    5    6 ar
    13    5   26 1
    14    6   17 1
    15    6    7 ar
    16    7    8 ar
    17    7    9 1
    18    8   27 1
    19    9   10 1
    20   10   15 ar
    21   10   11 ar
    22   11   12 ar
    23   11   28 1
    24   12   13 ar
    25   12   29 1
    26   13   14 ar
    27   13   30 1
    28   14   15 ar
    29   14   31 1
    30   15   16 1
    31   16   17 1
    32   16   32 1
    33   16   33 1
    34   18   19 2
    35   18   20 1
@<TRIPOS>MOLECULE
CHEMBL284705__1
   33    35     0     0     0
SMALL
USER_CHARGES

@<TRIPOS>ATOM
      1 C1         -0.0187    1.5258    0.0104 C.3       1 <0>        -0.1186
      2 C2          0.0021   -0.0041    0.0020 C.3       1 <0>        -0.1338
      3 C3          0.7309   -0.5033    1.2229 C.ar      1 <0>        -0.0122
      4 C4          0.2618   -0.1865    2.4844 C.ar      1 <0>        -0.0671
      5 C5          0.9338   -0.6258    3.6105 C.ar      1 <0>        -0.1184
      6 C6          2.0795   -1.3956    3.4692 C.ar      1 <0>         0.0463
      7 C7          2.5284   -1.7349    2.2079 C.ar      1 <0>         0.0606
      8 C8          1.8656   -1.2828    1.0795 C.ar      1 <0>        -0.1157
      9 O1          3.5919   -2.5645    2.1157 O.3       1 <0>        -0.2640
     10 C9          4.8217   -2.2110    2.5477 C.ar      1 <0>         0.1354
     11 C10         5.8781   -2.4987    1.6763 C.ar      1 <0>        -0.1366
     12 C11         7.1753   -2.1824    2.0097 C.ar      1 <0>        -0.0961
     13 C12         7.4377   -1.5723    3.2229 C.ar      1 <0>        -0.1398
     14 C13         6.4014   -1.2883    4.0833 C.ar      1 <0>        -0.0959
     15 C14         5.0826   -1.6043    3.7555 C.ar      1 <0>        -0.1725
     16 C15         4.0531   -1.2372    4.7928 C.3       1 <0>         0.1136
     17 O2          2.7784   -1.7931    4.5568 O.3       1 <0>        -0.3176
     18 C16        -1.4117   -0.5257    0.0127 C.2       1 <0>         0.5009
     19 O3         -2.1751   -0.2365   -0.8929 O.co2     1 <0>        -0.6949
     20 O4         -1.7922   -1.2369    0.9270 O.co2     1 <0>        -0.6843
     21 H1          1.0039    1.9031    0.0027 H         1 <0>         0.0408
     22 H2         -0.5459    1.8868   -0.8726 H         1 <0>         0.0625
     23 H3         -0.5289    1.8773    0.9072 H         1 <0>         0.0490
     24 H4          0.5123   -0.3556   -0.8948 H         1 <0>         0.0741
     25 H5         -0.6339    0.4075    2.5909 H         1 <0>         0.1316
     26 H6          0.5686   -0.3714    4.5945 H         1 <0>         0.1311
     27 H7          2.2332   -1.5332    0.0954 H         1 <0>         0.1303
     28 H8          5.6726   -2.9751    0.7291 H         1 <0>         0.1327
     29 H9          7.9826   -2.4093    1.3291 H         1 <0>         0.1300
     30 H10         8.4521   -1.3199    3.4943 H         1 <0>         0.1260
     31 H11         6.6130   -0.8118    5.0291 H         1 <0>         0.1257
     32 H12         4.4052   -1.5764    5.7670 H         1 <0>         0.1133
     33 H13         3.9589   -0.1516    4.8197 H         1 <0>         0.0637
@<TRIPOS>BOND
     1    1    2 1
     2    1   21 1
     3    1   22 1
     4    1   23 1
     5    2    3 1
     6    2   18 1
     7    2   24 1
     8    3    8 ar
     9    3    4 ar
    10    4    5 ar
    11    4   25 1
    12    5    6 ar
    13    5   26 1
    14    6   17 1
    15    6    7 ar
    16    7    8 ar
    17    7    9 1
    18    8   27 1
    19    9   10 1
    20   10   15 ar
    21   10   11 ar
    22   11   12 ar
    23   11   28 1
    24   12   13 ar
    25   12   29 1
    26   13   14 ar
    27   13   30 1
    28   14   15 ar
    29   14   31 1
    30   15   16 1
    31   16   17 1
    32   16   32 1
    33   16   33 1
    34   18   19 2
    35   18   20 1
@<TRIPOS>MOLECULE
CHEMBL350422
   33    35     0     0     0
SMALL
USER_CHARGES

@<TRIPOS>ATOM
      1 C1         -0.1779    1.4953   -0.0368 C.3       1 <0>        -0.0628
      2 C2         -0.0652   -0.0074   -0.0181 C.2       1 <0>         0.2159
      3 N1          0.1162   -0.7583   -1.0652 N.2       1 <0>        -0.4635
      4 C3          0.1691   -2.0502   -0.6739 C.2       1 <0>         0.1005
      5 C4          0.0078   -2.0623    0.6992 C.2       1 <0>        -0.0030
      6 O1         -0.1307   -0.7723    1.0796 O.3       1 <0>        -0.1824
      7 C5         -0.0052   -3.2477    1.5762 C.ar      1 <0>         0.0377
      8 C6          0.7523   -3.2607    2.7506 C.ar      1 <0>        -0.1119
      9 C7          0.7347   -4.3727    3.5661 C.ar      1 <0>        -0.0176
     10 C8         -0.0301   -5.4740    3.2238 C.ar      1 <0>        -0.6661
     11 C9         -0.7823   -5.4687    2.0622 C.ar      1 <0>        -0.0098
     12 C10        -0.7796   -4.3615    1.2400 C.ar      1 <0>        -0.1060
     13 S1         -0.0457   -6.8904    4.2718 S.o2      1 <0>         2.7005
     14 O2         -0.4095   -7.9954    3.4557 O.2       1 <0>        -0.9570
     15 O3          1.1647   -6.8586    5.0156 O.2       1 <0>        -0.9557
     16 N2         -1.2759   -6.6806    5.3603 N.pl3     1 <0>        -1.2469
     17 C11         0.3619   -3.2249   -1.5461 C.2       1 <0>        -0.0909
     18 C12        -0.1741   -3.4805   -2.7810 C.2       1 <0>        -0.1093
     19 C13         0.1539   -4.6600   -3.4137 C.2       1 <0>        -0.1395
     20 C14         0.9953   -5.5301   -2.7962 C.2       1 <0>        -0.1156
     21 S2          1.3603   -4.6791   -1.2700 S.3       1 <0>         0.1321
     22 Cl1         1.5729   -7.0700   -3.3519 Cl        1 <0>         0.0263
     23 H1          0.8132    1.9354    0.0738 H         1 <0>         0.0999
     24 H2         -0.6140    1.8152   -0.9831 H         1 <0>         0.1073
     25 H3         -0.8143    1.8222    0.7856 H         1 <0>         0.0943
     26 H4          1.3501   -2.4021    3.0187 H         1 <0>         0.1407
     27 H5          1.3196   -4.3841    4.4740 H         1 <0>         0.1520
     28 H6         -1.3762   -6.3321    1.8011 H         1 <0>         0.1529
     29 H7         -1.3709   -4.3568    0.3363 H         1 <0>         0.1395
     30 H8         -1.7411   -7.4516    5.7210 H         1 <0>         0.4234
     31 H9         -1.5312   -5.7868    5.6372 H         1 <0>         0.4177
     32 H10        -0.8408   -2.7715   -3.2492 H         1 <0>         0.1481
     33 H11        -0.2528   -4.8900   -4.3874 H         1 <0>         0.1494
@<TRIPOS>BOND
     1    1    2 1
     2    1   23 1
     3    1   24 1
     4    1   25 1
     5    2    6 1
     6    2    3 2
     7    3    4 1
     8    4    5 2
     9    4   17 1
    10    5    6 1
    11    5    7 1
    12    7   12 ar
    13    7    8 ar
    14    8    9 ar
    15    8   26 1
    16    9   10 ar
    17    9   27 1
    18   10   11 ar
    19   10   13 1
    20   11   12 ar
    21   11   28 1
    22   12   29 1
    23   13   14 2
    24   13   15 2
    25   13   16 1
    26   16   30 1
    27   16   31 1
    28   17   21 1
    29   17   18 2
    30   18   19 1
    31   18   32 1
    32   19   20 2
    33   19   33 1
    34   20   21 1
    35   20   22 1
@<TRIPOS>MOLECULE
CHEMBL522267
   31    33     0     0     0
SMALL
USER_CHARGES

@<TRIPOS>ATOM
      1 C1         -0.8332    1.4440    0.1076 C.3       1 <0>        -0.1240
      2 C2         -0.6416   -0.0505    0.0788 C.ar      1 <0>        -0.0492
      3 C3          0.2052   -0.6183   -0.8567 C.ar      1 <0>        -0.1213
      4 C4          0.3855   -1.9855   -0.8885 C.ar      1 <0>        -0.0744
      5 C5         -0.2888   -2.7968    0.0263 C.ar      1 <0>        -0.0625
      6 C6         -1.1417   -2.2172    0.9677 C.ar      1 <0>        -0.0592
      7 C7         -1.3088   -0.8481    0.9916 C.ar      1 <0>        -0.1191
      8 C8         -0.1010   -4.2615   -0.0020 C.2       1 <0>         0.0833
      9 C9          0.1687   -5.0553    1.0842 C.2       1 <0>        -0.1448
     10 C10         0.3603   -6.4347    1.1539 C.2       1 <0>         0.1253
     11 S1          0.6949   -7.3310    2.5736 S.2       1 <0>        -0.3015
     12 S2          0.1959   -7.1078   -0.4994 S.3       1 <0>         0.0229
     13 S3         -0.1950   -5.2999   -1.4594 S.3       1 <0>         0.0146
     14 C11         0.2724   -4.3394    2.3765 C.ar      1 <0>        -0.0279
     15 C12         1.3263   -3.4544    2.6040 C.ar      1 <0>        -0.0789
     16 C13         1.4180   -2.7902    3.8098 C.ar      1 <0>        -0.1059
     17 C14         0.4663   -3.0009    4.7931 C.ar      1 <0>        -0.0232
     18 C15        -0.5817   -3.8786    4.5730 C.ar      1 <0>        -0.1055
     19 C16        -0.6867   -4.5434    3.3687 C.ar      1 <0>        -0.0716
     20 Cl1         0.5878   -2.1618    6.3080 Cl        1 <0>        -0.0662
     21 H1         -0.0912    1.8927    0.7680 H         1 <0>         0.0787
     22 H2         -0.7138    1.8451   -0.8988 H         1 <0>         0.0721
     23 H3         -1.8332    1.6750    0.4746 H         1 <0>         0.0723
     24 H4          0.7258    0.0104   -1.5639 H         1 <0>         0.1340
     25 H5          1.0465   -2.4275   -1.6194 H         1 <0>         0.1314
     26 H6         -1.6665   -2.8390    1.6778 H         1 <0>         0.1315
     27 H7         -1.9651   -0.3981    1.7218 H         1 <0>         0.1338
     28 H8          2.0694   -3.2896    1.8377 H         1 <0>         0.1293
     29 H9          2.2337   -2.1050    3.9871 H         1 <0>         0.1363
     30 H10        -1.3210   -4.0393    5.3437 H         1 <0>         0.1380
     31 H11        -1.5072   -5.2241    3.1962 H         1 <0>         0.1316
@<TRIPOS>BOND
     1    1    2 1
     2    1   21 1
     3    1   22 1
     4    1   23 1
     5    2    7 ar
     6    2    3 ar
     7    3    4 ar
     8    3   24 1
     9    4    5 ar
    10    4   25 1
    11    5    6 ar
    12    5    8 1
    13    6    7 ar
    14    6   26 1
    15    7   27 1
    16    8   13 1
    17    8    9 2
    18    9   10 1
    19    9   14 1
    20   10   11 2
    21   10   12 1
    22   12   13 1
    23   14   19 ar
    24   14   15 ar
    25   15   16 ar
    26   15   28 1
    27   16   17 ar
    28   16   29 1
    29   17   18 ar
    30   17   20 1
    31   18   19 ar
    32   18   30 1
    33   19   31 1
@<TRIPOS>MOLECULE
CHEMBL259972
   41    43     0     0     0
SMALL
USER_CHARGES

@<TRIPOS>ATOM
      1 C1         -0.0173    1.4248    0.0099 C.3       1 <0>         0.0271
      2 O1          0.0021   -0.0041    0.0020 O.3       1 <0>        -0.3216
      3 C2         -1.2004   -0.6375    0.0101 C.ar      1 <0>         0.1212
      4 C3         -2.3737    0.1039    0.0195 C.ar      1 <0>        -0.2052
      5 C4         -3.5956   -0.5361    0.0277 C.ar      1 <0>        -0.0536
      6 C5         -3.6513   -1.9286    0.0261 C.ar      1 <0>        -0.0366
      7 C6         -2.4714   -2.6703    0.0162 C.ar      1 <0>        -0.0663
      8 C7         -1.2526   -2.0245    0.0031 C.ar      1 <0>        -0.1563
      9 C8         -4.9640   -2.6201    0.0354 C.2       1 <0>        -0.2310
     10 C9         -5.8880   -2.5854    1.0286 C.2       1 <0>         0.1583
     11 O2         -6.9346   -3.3357    0.6577 O.3       1 <0>        -0.0784
     12 N1         -6.6880   -3.8813   -0.6233 N.2       1 <0>        -0.3283
     13 C10        -5.5130   -3.4669   -1.0308 C.2       1 <0>         0.1629
     14 C11        -4.8608   -3.7943   -2.3214 C.ar      1 <0>        -0.0587
     15 C12        -4.0613   -2.8472   -2.9601 C.ar      1 <0>        -0.0371
     16 C13        -3.4562   -3.1546   -4.1602 C.ar      1 <0>        -0.1510
     17 C14        -3.6423   -4.4059   -4.7328 C.ar      1 <0>         0.1372
     18 C15        -4.4379   -5.3512   -4.0991 C.ar      1 <0>        -0.2125
     19 C16        -5.0411   -5.0518   -2.8960 C.ar      1 <0>        -0.0466
     20 O3         -3.0451   -4.7057   -5.9155 O.3       1 <0>        -0.3164
     21 C17        -3.2791   -6.0110   -6.4480 C.3       1 <0>         0.0263
     22 C18        -5.7591   -1.8321    2.3274 C.3       1 <0>        -0.1349
     23 C19        -6.3186   -0.4428    2.1600 C.2       1 <0>         0.5068
     24 O4         -6.7794   -0.0966    1.0856 O.co2     1 <0>        -0.6796
     25 O5         -6.3105    0.3349    3.0990 O.co2     1 <0>        -0.6866
     26 H1          1.0053    1.8021    0.0021 H         1 <0>         0.0956
     27 H2         -0.5445    1.7859   -0.8732 H         1 <0>         0.0546
     28 H3         -0.5275    1.7763    0.9067 H         1 <0>         0.0565
     29 H4         -2.3300    1.1830    0.0207 H         1 <0>         0.1274
     30 H5         -4.5083    0.0414    0.0357 H         1 <0>         0.1421
     31 H6         -2.5114   -3.7496    0.0149 H         1 <0>         0.1243
     32 H7         -0.3379   -2.5987   -0.0087 H         1 <0>         0.1267
     33 H8         -3.9164   -1.8737   -2.5154 H         1 <0>         0.1383
     34 H9         -2.8371   -2.4213   -4.6556 H         1 <0>         0.1357
     35 H10        -4.5811   -6.3234   -4.5471 H         1 <0>         0.1315
     36 H11        -5.6559   -5.7891   -2.4013 H         1 <0>         0.1306
     37 H12        -2.7459   -6.1191   -7.3924 H         1 <0>         0.0990
     38 H13        -2.9228   -6.7607   -5.7416 H         1 <0>         0.0560
     39 H14        -4.3473   -6.1487   -6.6160 H         1 <0>         0.0560
     40 H15        -6.3125   -2.3551    3.1073 H         1 <0>         0.0884
     41 H16        -4.7077   -1.7689    2.6080 H         1 <0>         0.0982
@<TRIPOS>BOND
     1    1    2 1
     2    1   26 1
     3    1   27 1
     4    1   28 1
     5    2    3 1
     6    3    8 ar
     7    3    4 ar
     8    4    5 ar
     9    4   29 1
    10    5    6 ar
    11    5   30 1
    12    6    7 ar
    13    6    9 1
    14    7    8 ar
    15    7   31 1
    16    8   32 1
    17    9   13 1
    18    9   10 2
    19   10   11 1
    20   10   22 1
    21   11   12 1
    22   12   13 2
    23   13   14 1
    24   14   19 ar
    25   14   15 ar
    26   15   16 ar
    27   15   33 1
    28   16   17 ar
    29   16   34 1
    30   17   18 ar
    31   17   20 1
    32   18   19 ar
    33   18   35 1
    34   19   36 1
    35   20   21 1
    36   21   37 1
    37   21   38 1
    38   21   39 1
    39   22   23 1
    40   22   40 1
    41   22   41 1
    42   23   24 2
    43   23   25 1
@<TRIPOS>MOLECULE
CHEMBL276324
   47    50     0     0     0
SMALL
USER_CHARGES

@<TRIPOS>ATOM
      1 C1          0.7326    0.1797   -1.1079 C.ar      1 <0>        -0.0646
      2 C2          1.9322    0.8599   -1.0720 C.ar      1 <0>        -0.1516
      3 C3          2.4426    1.3059    0.1365 C.ar      1 <0>         0.1139
      4 C4          1.7514    1.0717    1.3144 C.ar      1 <0>        -0.1543
      5 C5          0.5510    0.3923    1.2890 C.ar      1 <0>        -0.0536
      6 C6          0.0331   -0.0585    0.0750 C.ar      1 <0>        -0.0405
      7 C7         -1.2557   -0.7881    0.0421 C.2       1 <0>         0.1329
      8 C8         -1.4452   -1.9191   -0.7487 C.2       1 <0>        -0.1714
      9 S1         -3.1423   -2.3113   -0.3557 S.3       1 <0>         0.1960
     10 C9         -3.4317   -1.0560    0.7263 C.2       1 <0>         0.0337
     11 N1         -2.2963   -0.4088    0.7663 N.2       1 <0>        -0.4771
     12 C10        -4.7016   -0.7518    1.4786 C.3       1 <0>         0.1494
     13 O1         -5.5182    0.1249    0.6998 O.3       1 <0>        -0.2975
     14 C11        -6.7084    0.4999    1.2380 C.ar      1 <0>         0.1592
     15 C12        -7.0797    0.0382    2.4923 C.ar      1 <0>        -0.1992
     16 C13        -8.2911    0.4209    3.0382 C.ar      1 <0>         0.0174
     17 C14        -9.1329    1.2635    2.3340 C.ar      1 <0>        -0.1370
     18 C15        -8.7645    1.7247    1.0826 C.ar      1 <0>         0.0159
     19 C16        -7.5510    1.3496    0.5362 C.ar      1 <0>        -0.1360
     20 Cl1        -9.8230    2.7813    0.2013 Cl        1 <0>        -0.0408
     21 Cl2        -8.7563   -0.1566    4.6078 Cl        1 <0>        -0.0460
     22 C17        -0.5047   -2.6031   -1.6584 C.ar      1 <0>         0.0543
     23 C18         0.7895   -2.9068   -1.2305 C.ar      1 <0>        -0.1089
     24 C19         1.6629   -3.5459   -2.0857 C.ar      1 <0>        -0.0122
     25 C20         1.2596   -3.8856   -3.3649 C.ar      1 <0>        -0.6687
     26 C21        -0.0211   -3.5873   -3.7956 C.ar      1 <0>        -0.0119
     27 C22        -0.9071   -2.9544   -2.9487 C.ar      1 <0>        -0.1224
     28 S2          2.3821   -4.7013   -4.4508 S.o2      1 <0>         2.7000
     29 O2          1.9428   -4.4228   -5.7732 O.2       1 <0>        -0.9595
     30 O3          3.6904   -4.3795   -3.9991 O.2       1 <0>        -0.9589
     31 N2          2.1894   -6.3299   -4.2211 N.pl3     1 <0>        -1.2493
     32 F1          3.6182    1.9708    0.1666 F         1 <0>        -0.1343
     33 H1          0.3336   -0.1639   -2.0508 H         1 <0>         0.1327
     34 H2          2.4746    1.0449   -1.9874 H         1 <0>         0.1424
     35 H3          2.1533    1.4212    2.2539 H         1 <0>         0.1416
     36 H4          0.0132    0.2100    2.2077 H         1 <0>         0.1374
     37 H5         -5.2423   -1.6790    1.6686 H         1 <0>         0.0981
     38 H6         -4.4564   -0.2733    2.4268 H         1 <0>         0.1046
     39 H7         -6.4232   -0.6200    3.0419 H         1 <0>         0.1466
     40 H8        -10.0789    1.5612    2.7615 H         1 <0>         0.1491
     41 H9         -7.2616    1.7136   -0.4385 H         1 <0>         0.1505
     42 H10         1.1059   -2.6416   -0.2325 H         1 <0>         0.1390
     43 H11         2.6641   -3.7814   -1.7561 H         1 <0>         0.1507
     44 H12        -0.3292   -3.8546   -4.7956 H         1 <0>         0.1510
     45 H13        -1.9081   -2.7268   -3.2844 H         1 <0>         0.1394
     46 H14         1.5424   -6.6555   -3.5759 H         1 <0>         0.4171
     47 H15         2.7234   -6.9583   -4.7318 H         1 <0>         0.4227
@<TRIPOS>BOND
     1    1    6 ar
     2    1    2 ar
     3    1   33 1
     4    2    3 ar
     5    2   34 1
     6    3    4 ar
     7    3   32 1
     8    4    5 ar
     9    4   35 1
    10    5    6 ar
    11    5   36 1
    12    6    7 1
    13    7   11 1
    14    7    8 2
    15    8    9 1
    16    8   22 1
    17    9   10 1
    18   10   11 2
    19   10   12 1
    20   12   13 1
    21   12   37 1
    22   12   38 1
    23   13   14 1
    24   14   19 ar
    25   14   15 ar
    26   15   16 ar
    27   15   39 1
    28   16   17 ar
    29   16   21 1
    30   17   18 ar
    31   17   40 1
    32   18   19 ar
    33   18   20 1
    34   19   41 1
    35   22   27 ar
    36   22   23 ar
    37   23   24 ar
    38   23   42 1
    39   24   25 ar
    40   24   43 1
    41   25   26 ar
    42   25   28 1
    43   26   27 ar
    44   26   44 1
    45   27   45 1
    46   28   29 2
    47   28   30 2
    48   28   31 1
    49   31   46 1
    50   31   47 1
@<TRIPOS>MOLECULE
CHEMBL122255
   45    46     0     0     0
SMALL
USER_CHARGES

@<TRIPOS>ATOM
      1 C1         -0.0187    1.5258    0.0104 C.3       1 <0>        -0.1482
      2 C2          0.0021   -0.0041    0.0020 C.3       1 <0>        -0.0197
      3 C3          0.7421   -0.5109    1.2415 C.3       1 <0>        -0.1422
      4 C4         -1.4333   -0.5336    0.0129 C.3       1 <0>        -0.1424
      5 C5          0.7074   -0.4901   -1.2379 C.ar      1 <0>        -0.0992
      6 C6          1.2154    0.4186   -2.1423 C.ar      1 <0>        -0.0659
      7 C7          1.8681   -0.0317   -3.2887 C.ar      1 <0>        -0.0391
      8 C8          2.0053   -1.3999   -3.5172 C.ar      1 <0>        -0.0604
      9 C9          1.4953   -2.3038   -2.6091 C.ar      1 <0>        -0.1011
     10 C10         0.8503   -1.8522   -1.4656 C.ar      1 <0>         0.1428
     11 O1          0.3534   -2.7450   -0.5701 O.3       1 <0>        -0.4840
     12 C11         1.6427   -3.7831   -2.8556 C.3       1 <0>        -0.0194
     13 C12         2.3899   -4.0089   -4.1716 C.3       1 <0>        -0.1472
     14 C13         2.4308   -4.4156   -1.7068 C.3       1 <0>        -0.1426
     15 C14         0.2573   -4.4269   -2.9388 C.3       1 <0>        -0.1425
     16 C15         2.4152    0.9431   -4.2637 C.2       1 <0>         0.3390
     17 N1          3.0332    0.5380   -5.3597 N.2       1 <0>        -0.5513
     18 C16         3.4941    1.4636   -6.1814 C.2       1 <0>         0.2939
     19 S1          3.0576    2.8917   -5.4115 S.3       1 <0>         0.2979
     20 N2          2.2958    2.2407   -4.0679 N.2       1 <0>        -0.4702
     21 N3          4.1701    1.2980   -7.3802 N.pl3     1 <0>        -0.5383
     22 C17         4.5672    2.3821   -8.0895 C.1       1 <0>         0.4034
     23 N4          4.9001    3.2910   -8.6841 N.1       1 <0>        -0.3574
     24 H1          1.0039    1.9031    0.0027 H         1 <0>         0.0595
     25 H2         -0.5459    1.8868   -0.8726 H         1 <0>         0.0588
     26 H3         -0.5289    1.8773    0.9072 H         1 <0>         0.0607
     27 H4          0.2319   -0.1594    2.1383 H         1 <0>         0.0554
     28 H5          0.7568   -1.6008    1.2356 H         1 <0>         0.0752
     29 H6          1.7647   -0.1336    1.2338 H         1 <0>         0.0516
     30 H7         -1.9605   -0.1726   -0.8702 H         1 <0>         0.0549
     31 H8         -1.4185   -1.6235    0.0069 H         1 <0>         0.0581
     32 H9         -1.9435   -0.1821    0.9097 H         1 <0>         0.0619
     33 H10         1.1072    1.4781   -1.9627 H         1 <0>         0.1427
     34 H11         2.5102   -1.7518   -4.4047 H         1 <0>         0.1454
     35 H12        -0.5595   -3.0115   -0.7456 H         1 <0>         0.3854
     36 H13         3.3769   -3.5503   -4.1123 H         1 <0>         0.0595
     37 H14         2.4965   -5.0789   -4.3499 H         1 <0>         0.0600
     38 H15         1.8285   -3.5583   -4.9901 H         1 <0>         0.0588
     39 H16         1.8985   -4.2547   -0.7693 H         1 <0>         0.0753
     40 H17         2.5375   -5.4856   -1.8851 H         1 <0>         0.0551
     41 H18         3.4178   -3.9569   -1.6475 H         1 <0>         0.0516
     42 H19        -0.3042   -3.9764   -3.7573 H         1 <0>         0.0549
     43 H20         0.3639   -5.4969   -3.1172 H         1 <0>         0.0617
     44 H21        -0.2750   -4.2661   -2.0013 H         1 <0>         0.0578
     45 H22         4.3588    0.4060   -7.7114 H         1 <0>         0.4496
@<TRIPOS>BOND
     1    1    2 1
     2    1   24 1
     3    1   25 1
     4    1   26 1
     5    2    3 1
     6    2    4 1
     7    2    5 1
     8    3   27 1
     9    3   28 1
    10    3   29 1
    11    4   30 1
    12    4   31 1
    13    4   32 1
    14    5   10 ar
    15    5    6 ar
    16    6    7 ar
    17    6   33 1
    18    7    8 ar
    19    7   16 1
    20    8    9 ar
    21    8   34 1
    22    9   10 ar
    23    9   12 1
    24   10   11 1
    25   11   35 1
    26   12   13 1
    27   12   14 1
    28   12   15 1
    29   13   36 1
    30   13   37 1
    31   13   38 1
    32   14   39 1
    33   14   40 1
    34   14   41 1
    35   15   42 1
    36   15   43 1
    37   15   44 1
    38   16   20 2
    39   16   17 1
    40   17   18 2
    41   18   19 1
    42   18   21 1
    43   19   20 1
    44   21   22 1
    45   21   45 1
    46   22   23 3
@<TRIPOS>MOLECULE
CHEMBL224612
   29    30     0     0     0
SMALL
USER_CHARGES

@<TRIPOS>ATOM
      1 C1         -0.0145    1.3824    0.0211 C.ar      1 <0>        -0.1022
      2 C2          0.6036    1.0406    1.2102 C.ar      1 <0>        -0.1323
      3 C3          1.8089    0.3672    1.1950 C.ar      1 <0>        -0.0691
      4 C4          2.4007    0.0324   -0.0171 C.ar      1 <0>        -0.1434
      5 C5          1.7764    0.3771   -1.2100 C.ar      1 <0>        -0.0692
      6 C6          0.5714    1.0509   -1.1870 C.ar      1 <0>        -0.1328
      7 S1          3.9390   -0.8265   -0.0415 S.3       1 <0>         0.0313
      8 C7          3.4828   -2.5222    0.1032 C.ar      1 <0>        -0.2053
      9 C8          2.1485   -2.8957    0.0902 C.ar      1 <0>         0.1218
     10 N1          1.8022   -4.1647    0.1983 N.ar      1 <0>        -0.5395
     11 C9          2.6985   -5.1252    0.3224 C.ar      1 <0>         0.1314
     12 C10         4.0489   -4.8386    0.3442 C.ar      1 <0>        -0.2938
     13 C11         4.4632   -3.5146    0.2274 C.ar      1 <0>         0.3281
     14 N2          5.8181   -3.1848    0.2389 N.2       1 <0>        -1.0430
     15 S2          6.9590   -4.3759    0.3868 S.o2      1 <0>         2.5134
     16 O1          6.7337   -4.9360    1.6732 O.2       1 <0>        -0.9528
     17 O2          6.8108   -5.1675   -0.7839 O.2       1 <0>        -0.9527
     18 C12         8.5497   -3.5045    0.3546 C.3       1 <0>        -0.0056
     19 F1          8.6066   -2.5983    1.4190 F         1 <0>        -0.1626
     20 F2          9.5913   -4.4307    0.4746 F         1 <0>        -0.1829
     21 F3          8.6779   -2.8125   -0.8544 F         1 <0>        -0.1627
     22 H1         -0.9593    1.9055    0.0361 H         1 <0>         0.1208
     23 H2          0.1432    1.3011    2.1518 H         1 <0>         0.1231
     24 H3          2.2914    0.1012    2.1240 H         1 <0>         0.1301
     25 H4          2.2335    0.1188   -2.1538 H         1 <0>         0.1308
     26 H5          0.0857    1.3191   -2.1136 H         1 <0>         0.1233
     27 H6          1.3834   -2.1400   -0.0092 H         1 <0>         0.1387
     28 H7          2.3709   -6.1507    0.4084 H         1 <0>         0.1419
     29 H8          4.7747   -5.6318    0.4465 H         1 <0>         0.1153
@<TRIPOS>BOND
     1    1    6 ar
     2    1    2 ar
     3    1   22 1
     4    2    3 ar
     5    2   23 1
     6    3    4 ar
     7    3   24 1
     8    4    5 ar
     9    4    7 1
    10    5    6 ar
    11    5   25 1
    12    6   26 1
    13    7    8 1
    14    8   13 ar
    15    8    9 ar
    16    9   10 ar
    17    9   27 1
    18   10   11 ar
    19   11   12 ar
    20   11   28 1
    21   12   13 ar
    22   12   29 1
    23   13   14 1
    24   14   15 1
    25   15   16 2
    26   15   17 2
    27   15   18 1
    28   18   19 1
    29   18   20 1
    30   18   21 1
@<TRIPOS>MOLECULE
CHEMBL18797
   40    42     0     0     0
SMALL
USER_CHARGES

@<TRIPOS>ATOM
      1 C1         -0.0439    1.3635   -0.6440 C.3       1 <0>        -0.0874
      2 C2         -0.0025   -0.0397   -0.0960 C.2       1 <0>        -0.1309
      3 C3         -1.0756   -0.7895    0.2220 C.2       1 <0>        -0.0100
      4 C4         -0.6392   -2.0946    0.7226 C.ar      1 <0>        -0.0059
      5 C5         -1.3387   -3.2167    1.1780 C.ar      1 <0>        -0.1272
      6 C6         -0.6462   -4.3331    1.5994 C.ar      1 <0>         0.1014
      7 C7          0.7427   -4.3545    1.5760 C.ar      1 <0>        -0.1658
      8 C8          1.4511   -3.2580    1.1303 C.ar      1 <0>        -0.0710
      9 C9          0.7717   -2.1225    0.7012 C.ar      1 <0>        -0.0956
     10 C10         1.2127   -0.8159    0.1730 C.2       1 <0>        -0.0141
     11 C11         2.5125   -0.4047   -0.0252 C.2       1 <0>        -0.0858
     12 C12         3.6081   -1.3706    0.0692 C.ar      1 <0>        -0.0550
     13 C13         3.4905   -2.6298   -0.5385 C.ar      1 <0>        -0.0770
     14 C14         4.5151   -3.5269   -0.4481 C.ar      1 <0>        -0.1023
     15 C15         5.6770   -3.1939    0.2465 C.ar      1 <0>        -0.0838
     16 C16         5.7986   -1.9440    0.8520 C.ar      1 <0>        -0.1356
     17 C17         4.7817   -1.0381    0.7627 C.ar      1 <0>        -0.0863
     18 S1          6.9960   -4.3567    0.3601 S.3       1 <0>        -0.1220
     19 C18         8.2592   -3.4936    1.3348 C.3       1 <0>        -0.1438
     20 F1         -1.3249   -5.4153    2.0392 F         1 <0>        -0.1428
     21 C19        -2.5106   -0.3507    0.0836 C.3       1 <0>        -0.1489
     22 C20        -3.0571   -0.8291   -1.2368 C.2       1 <0>         0.4994
     23 O1         -2.3472   -1.4673   -1.9952 O.co2     1 <0>        -0.6840
     24 O2         -4.2093   -0.5780   -1.5467 O.co2     1 <0>        -0.7005
     25 H1          0.9730    1.7183   -0.8115 H         1 <0>         0.0583
     26 H2         -0.5907    1.3693   -1.5869 H         1 <0>         0.0728
     27 H3         -0.5440    2.0178    0.0700 H         1 <0>         0.0650
     28 H4         -2.4185   -3.2093    1.2002 H         1 <0>         0.1355
     29 H5          1.2713   -5.2353    1.9092 H         1 <0>         0.1331
     30 H6          2.5308   -3.2809    1.1149 H         1 <0>         0.1382
     31 H7          2.7230    0.6304   -0.2502 H         1 <0>         0.1360
     32 H8          2.5906   -2.8888   -1.0765 H         1 <0>         0.1358
     33 H9          4.4254   -4.4966   -0.9152 H         1 <0>         0.1302
     34 H10         6.7007   -1.6906    1.3890 H         1 <0>         0.1224
     35 H11         4.8786   -0.0685    1.2282 H         1 <0>         0.1283
     36 H12         8.5584   -2.5826    0.8165 H         1 <0>         0.0833
     37 H13         7.8517   -3.2380    2.3129 H         1 <0>         0.0835
     38 H14         9.1266   -4.1416    1.4606 H         1 <0>         0.1074
     39 H15        -3.1003   -0.7750    0.8961 H         1 <0>         0.0703
     40 H16        -2.5635    0.7372    0.1260 H         1 <0>         0.0748
@<TRIPOS>BOND
     1    1    2 1
     2    1   25 1
     3    1   26 1
     4    1   27 1
     5    2   10 1
     6    2    3 2
     7    3    4 1
     8    3   21 1
     9    4    9 ar
    10    4    5 ar
    11    5    6 ar
    12    5   28 1
    13    6    7 ar
    14    6   20 1
    15    7    8 ar
    16    7   29 1
    17    8    9 ar
    18    8   30 1
    19    9   10 1
    20   10   11 2
    21   11   12 1
    22   11   31 1
    23   12   17 ar
    24   12   13 ar
    25   13   14 ar
    26   13   32 1
    27   14   15 ar
    28   14   33 1
    29   15   16 ar
    30   15   18 1
    31   16   17 ar
    32   16   34 1
    33   17   35 1
    34   18   19 1
    35   19   36 1
    36   19   37 1
    37   19   38 1
    38   21   22 1
    39   21   39 1
    40   21   40 1
    41   22   23 2
    42   22   24 1
@<TRIPOS>MOLECULE
CHEMBL113138
   52    53     0     0     0
SMALL
USER_CHARGES

@<TRIPOS>ATOM
      1 C1          0.0016    1.5276    0.0259 C.3       1 <0>        -0.1432
      2 C2          0.0031   -0.0022    0.0067 C.3       1 <0>        -0.0213
      3 C3          0.7356   -0.5271    1.2431 C.3       1 <0>        -0.1414
      4 C4         -1.4388   -0.5137    0.0128 C.3       1 <0>        -0.1416
      5 C5          0.7033   -0.4883   -1.2361 C.ar      1 <0>        -0.0970
      6 C6          1.2222    0.4191   -2.1319 C.ar      1 <0>        -0.0862
      7 C7          1.8725   -0.0339   -3.2861 C.ar      1 <0>        -0.0929
      8 C8          1.9913   -1.4088   -3.5226 C.ar      1 <0>        -0.0818
      9 C9          1.4687   -2.3076   -2.6202 C.ar      1 <0>        -0.0992
     10 C10         0.8290   -1.8524   -1.4730 C.ar      1 <0>         0.1355
     11 O1          0.3203   -2.7431   -0.5836 O.3       1 <0>        -0.4843
     12 C11         1.5958   -3.7877   -2.8735 C.3       1 <0>        -0.0204
     13 C12         2.3407   -4.0178   -4.1899 C.3       1 <0>        -0.1482
     14 C13         2.3741   -4.4363   -1.7270 C.3       1 <0>        -0.1423
     15 C14         0.2015   -4.4117   -2.9606 C.3       1 <0>        -0.1423
     16 C15         2.4278    0.9299   -4.2457 C.2       1 <0>         0.0079
     17 C16         2.2097    2.2563   -4.0768 C.2       1 <0>        -0.0880
     18 C17         2.5906    3.3492   -4.9902 C.2       1 <0>         0.5163
     19 O2          3.1704    3.2459   -6.0595 O.2       1 <0>        -0.4677
     20 N1          2.1692    4.4793   -4.4059 N.2       1 <0>        -0.6839
     21 C18         1.5845    4.1897   -3.2565 C.2       1 <0>         0.5924
     22 O3          1.5867    2.8644   -3.0304 O.3       1 <0>        -0.2263
     23 N2          1.0545    5.0979   -2.4273 N.2       1 <0>        -0.6100
     24 C19         0.9866    6.3685   -2.7932 C.2       1 <0>         0.7149
     25 N3          1.5588    6.7728   -3.9639 N.pl3     1 <0>        -0.8325
     26 N4          0.3443    7.2735   -1.9996 N.pl3     1 <0>        -0.8082
     27 H1          1.0289    1.8921    0.0215 H         1 <0>         0.0591
     28 H2         -0.5203    1.9015   -0.8550 H         1 <0>         0.0590
     29 H3         -0.5048    1.8793    0.9247 H         1 <0>         0.0587
     30 H4          0.2292   -0.1755    2.1420 H         1 <0>         0.0548
     31 H5          0.7367   -1.6170    1.2295 H         1 <0>         0.0741
     32 H6          1.7629   -0.1626    1.2388 H         1 <0>         0.0509
     33 H7         -1.9607   -0.1399   -0.8681 H         1 <0>         0.0539
     34 H8         -1.4378   -1.6037   -0.0009 H         1 <0>         0.0570
     35 H9         -1.9453   -0.1621    0.9117 H         1 <0>         0.0614
     36 H10         1.1276    1.4786   -1.9448 H         1 <0>         0.1547
     37 H11         2.4916   -1.7636   -4.4116 H         1 <0>         0.1365
     38 H12        -0.5959   -2.9964   -0.7610 H         1 <0>         0.3837
     39 H13         3.3340   -3.5732   -4.1278 H         1 <0>         0.0595
     40 H14         2.4326   -5.0884   -4.3731 H         1 <0>         0.0605
     41 H15         1.7862   -3.5557   -5.0067 H         1 <0>         0.0587
     42 H16         1.8434   -4.2724   -0.7891 H         1 <0>         0.0751
     43 H17         2.4660   -5.5069   -1.9101 H         1 <0>         0.0547
     44 H18         3.3673   -3.9917   -1.6649 H         1 <0>         0.0515
     45 H19        -0.3529   -3.9497   -3.7774 H         1 <0>         0.0547
     46 H20         0.2934   -5.4823   -3.1438 H         1 <0>         0.0614
     47 H21        -0.3292   -4.2478   -2.0228 H         1 <0>         0.0575
     48 H22         3.0099    0.5810   -5.0859 H         1 <0>         0.1669
     49 H23         1.9408    6.1176   -4.5687 H         1 <0>         0.4413
     50 H24         1.5837    7.7154   -4.1915 H         1 <0>         0.3949
     51 H25        -0.0625    6.9861   -1.1673 H         1 <0>         0.4305
     52 H26         0.2945    8.2044   -2.2677 H         1 <0>         0.4205
@<TRIPOS>BOND
     1    1    2 1
     2    1   27 1
     3    1   28 1
     4    1   29 1
     5    2    3 1
     6    2    4 1
     7    2    5 1
     8    3   30 1
     9    3   31 1
    10    3   32 1
    11    4   33 1
    12    4   34 1
    13    4   35 1
    14    5   10 ar
    15    5    6 ar
    16    6    7 ar
    17    6   36 1
    18    7    8 ar
    19    7   16 1
    20    8    9 ar
    21    8   37 1
    22    9   10 ar
    23    9   12 1
    24   10   11 1
    25   11   38 1
    26   12   13 1
    27   12   14 1
    28   12   15 1
    29   13   39 1
    30   13   40 1
    31   13   41 1
    32   14   42 1
    33   14   43 1
    34   14   44 1
    35   15   45 1
    36   15   46 1
    37   15   47 1
    38   16   17 2
    39   16   48 1
    40   17   22 1
    41   17   18 1
    42   18   19 2
    43   18   20 1
    44   20   21 2
    45   21   22 1
    46   21   23 1
    47   23   24 2
    48   24   25 1
    49   24   26 1
    50   25   49 1
    51   25   50 1
    52   26   51 1
    53   26   52 1
@<TRIPOS>MOLECULE
CHEMBL113138__1
   51    52     0     0     0
SMALL
USER_CHARGES

@<TRIPOS>ATOM
      1 C1          0.0016    1.5276    0.0259 C.3       1 <0>        -0.1440
      2 C2          0.0031   -0.0022    0.0067 C.3       1 <0>        -0.0214
      3 C3          0.7356   -0.5271    1.2431 C.3       1 <0>        -0.1384
      4 C4         -1.4388   -0.5137    0.0128 C.3       1 <0>        -0.1391
      5 C5          0.7033   -0.4883   -1.2361 C.ar      1 <0>        -0.0910
      6 C6          1.2222    0.4191   -2.1319 C.ar      1 <0>        -0.0983
      7 C7          1.8725   -0.0339   -3.2861 C.ar      1 <0>        -0.0604
      8 C8          1.9913   -1.4088   -3.5226 C.ar      1 <0>        -0.0997
      9 C9          1.4687   -2.3076   -2.6202 C.ar      1 <0>        -0.1003
     10 C10         0.8290   -1.8524   -1.4730 C.ar      1 <0>         0.1130
     11 O1          0.3203   -2.7431   -0.5836 O.3       1 <0>        -0.4860
     12 C11         1.5958   -3.7877   -2.8735 C.3       1 <0>        -0.0183
     13 C12         2.3407   -4.0178   -4.1899 C.3       1 <0>        -0.1462
     14 C13         2.3741   -4.4363   -1.7270 C.3       1 <0>        -0.1402
     15 C14         0.2015   -4.4117   -2.9606 C.3       1 <0>        -0.1406
     16 C15         2.4278    0.9299   -4.2457 C.2       1 <0>        -0.0706
     17 C16         2.2097    2.2563   -4.0768 C.2       1 <0>        -0.0356
     18 C17         2.5906    3.3492   -4.9902 C.2       1 <0>         0.5035
     19 O2          3.1704    3.2459   -6.0595 O.2       1 <0>        -0.5211
     20 N1          2.1692    4.4793   -4.4059 N.2       1 <0>        -0.6987
     21 C18         1.5845    4.1897   -3.2565 C.2       1 <0>         0.5513
     22 O3          1.5867    2.8644   -3.0304 O.3       1 <0>        -0.2467
     23 N2          1.0545    5.0979   -2.4273 N.2       1 <0>        -0.5731
     24 C19         0.9866    6.3685   -2.7932 C.2       1 <0>         0.6115
     25 N3          1.5588    6.7728   -3.9639 N.pl3     1 <0>        -0.9096
     26 N4          0.3443    7.2735   -1.9996 N.2       1 <0>        -0.8416
     27 H1          1.0289    1.8921    0.0215 H         1 <0>         0.0614
     28 H2         -0.5203    1.9015   -0.8550 H         1 <0>         0.0628
     29 H3         -0.5048    1.8793    0.9247 H         1 <0>         0.0563
     30 H4          0.2292   -0.1755    2.1420 H         1 <0>         0.0518
     31 H5          0.7367   -1.6170    1.2295 H         1 <0>         0.0711
     32 H6          1.7629   -0.1626    1.2388 H         1 <0>         0.0503
     33 H7         -1.9607   -0.1399   -0.8681 H         1 <0>         0.0539
     34 H8         -1.4378   -1.6037   -0.0009 H         1 <0>         0.0542
     35 H9         -1.9453   -0.1621    0.9117 H         1 <0>         0.0584
     36 H10         1.1276    1.4786   -1.9448 H         1 <0>         0.1599
     37 H11         2.4916   -1.7636   -4.4116 H         1 <0>         0.1306
     38 H12        -0.5959   -2.9964   -0.7610 H         1 <0>         0.3767
     39 H13         3.3340   -3.5732   -4.1278 H         1 <0>         0.0591
     40 H14         2.4326   -5.0884   -4.3731 H         1 <0>         0.0557
     41 H15         1.7862   -3.5557   -5.0067 H         1 <0>         0.0585
     42 H16         1.8434   -4.2724   -0.7891 H         1 <0>         0.0747
     43 H17         2.4660   -5.5069   -1.9101 H         1 <0>         0.0500
     44 H18         3.3673   -3.9917   -1.6649 H         1 <0>         0.0505
     45 H19        -0.3529   -3.9497   -3.7774 H         1 <0>         0.0539
     46 H20         0.2934   -5.4823   -3.1438 H         1 <0>         0.0566
     47 H21        -0.3292   -4.2478   -2.0228 H         1 <0>         0.0576
     48 H22         3.0099    0.5810   -5.0859 H         1 <0>         0.1552
     49 H23         1.9408    6.1176   -4.5687 H         1 <0>         0.4122
     50 H24         1.5837    7.7154   -4.1915 H         1 <0>         0.3658
     51 H25         0.2945    8.2044   -2.2677 H         1 <0>         0.3045
@<TRIPOS>BOND
     1    1    2 1
     2    1   27 1
     3    1   28 1
     4    1   29 1
     5    2    3 1
     6    2    4 1
     7    2    5 1
     8    3   30 1
     9    3   31 1
    10    3   32 1
    11    4   33 1
    12    4   34 1
    13    4   35 1
    14    5   10 ar
    15    5    6 ar
    16    6    7 ar
    17    6   36 1
    18    7    8 ar
    19    7   16 1
    20    8    9 ar
    21    8   37 1
    22    9   10 ar
    23    9   12 1
    24   10   11 1
    25   11   38 1
    26   12   13 1
    27   12   14 1
    28   12   15 1
    29   13   39 1
    30   13   40 1
    31   13   41 1
    32   14   42 1
    33   14   43 1
    34   14   44 1
    35   15   45 1
    36   15   46 1
    37   15   47 1
    38   16   17 2
    39   16   48 1
    40   17   22 1
    41   17   18 1
    42   18   19 2
    43   18   20 1
    44   20   21 2
    45   21   22 1
    46   21   23 1
    47   23   24 2
    48   24   25 1
    49   24   26 1
    50   25   49 1
    51   25   50 1
    52   26   51 1
@<TRIPOS>MOLECULE
CHEMBL113138__2
   51    52     0     0     0
SMALL
USER_CHARGES

@<TRIPOS>ATOM
      1 C1          0.0250    1.5244    0.0352 C.3       1 <0>        -0.1431
      2 C2          0.0270   -0.0055    0.0157 C.3       1 <0>        -0.0205
      3 C3          0.7713   -0.5301    1.2453 C.3       1 <0>        -0.1382
      4 C4         -1.4145   -0.5177    0.0351 C.3       1 <0>        -0.1388
      5 C5          0.7159   -0.4910   -1.2335 C.ar      1 <0>        -0.0917
      6 C6          1.2261    0.4169   -2.1339 C.ar      1 <0>        -0.1029
      7 C7          1.8659   -0.0357   -3.2942 C.ar      1 <0>        -0.0509
      8 C8          1.9832   -1.4105   -3.5321 C.ar      1 <0>        -0.1042
      9 C9          1.4694   -2.3097   -2.6250 C.ar      1 <0>        -0.0990
     10 C10         0.8401   -1.8549   -1.4719 C.ar      1 <0>         0.1066
     11 O1          0.3402   -2.7460   -0.5779 O.3       1 <0>        -0.4865
     12 C11         1.5949   -3.7897   -2.8796 C.3       1 <0>        -0.0182
     13 C12         2.3277   -4.0192   -4.2030 C.3       1 <0>        -0.1461
     14 C13         2.3841   -4.4381   -1.7405 C.3       1 <0>        -0.1398
     15 C14         0.2002   -4.4144   -2.9540 C.3       1 <0>        -0.1402
     16 C15         2.4118    0.9285   -4.2588 C.2       1 <0>        -0.0913
     17 C16         2.1910    2.2545   -4.0900 C.2       1 <0>        -0.0282
     18 C17         2.5618    3.3474   -5.0076 C.2       1 <0>         0.4819
     19 O2          3.1339    3.2443   -6.0811 O.2       1 <0>        -0.5263
     20 N1          2.1415    4.4770   -4.4216 N.2       1 <0>        -0.6001
     21 C18         1.5663    4.1872   -3.2675 C.2       1 <0>         0.5552
     22 O3          1.5741    2.8622   -3.0397 O.3       1 <0>        -0.2628
     23 N2          1.0399    5.0949   -2.4355 N.2       1 <0>        -0.6195
     24 C19         1.0755    6.3804   -2.7500 C.2       1 <0>         0.5783
     25 N3          1.6484    6.7804   -3.9219 N.2       1 <0>        -0.7981
     26 N4          0.5392    7.3052   -1.9023 N.pl3     1 <0>        -0.8788
     27 H1          1.0520    1.8894    0.0214 H         1 <0>         0.0613
     28 H2         -0.5052    1.8982   -0.8408 H         1 <0>         0.0627
     29 H3         -0.4733    1.8756    0.9388 H         1 <0>         0.0537
     30 H4          0.2730   -0.1789    2.1489 H         1 <0>         0.0504
     31 H5          0.7728   -1.6200    1.2314 H         1 <0>         0.0715
     32 H6          1.7983   -0.1652    1.2315 H         1 <0>         0.0501
     33 H7         -1.9447   -0.1439   -0.8408 H         1 <0>         0.0536
     34 H8         -1.4131   -1.6076    0.0213 H         1 <0>         0.0547
     35 H9         -1.9128   -0.1665    0.9387 H         1 <0>         0.0570
     36 H10         1.1326    1.4762   -1.9458 H         1 <0>         0.1601
     37 H11         2.4754   -1.7648   -4.4256 H         1 <0>         0.1296
     38 H12        -0.5775   -2.9998   -0.7468 H         1 <0>         0.3750
     39 H13         3.3213   -3.5742   -4.1500 H         1 <0>         0.0592
     40 H14         2.4184   -5.0897   -4.3871 H         1 <0>         0.0550
     41 H15         1.7654   -3.5573   -5.0145 H         1 <0>         0.0587
     42 H16         1.8620   -4.2746   -0.7977 H         1 <0>         0.0744
     43 H17         2.4748   -5.5086   -1.9247 H         1 <0>         0.0494
     44 H18         3.3777   -3.9930   -1.6875 H         1 <0>         0.0504
     45 H19        -0.3621   -3.9525   -3.7655 H         1 <0>         0.0537
     46 H20         0.2909   -5.4849   -3.1381 H         1 <0>         0.0560
     47 H21        -0.3219   -4.2509   -2.0112 H         1 <0>         0.0572
     48 H22         2.9891    0.5803   -5.1025 H         1 <0>         0.1517
     49 H23         1.6745    7.7223   -4.1523 H         1 <0>         0.2829
     50 H24         0.1318    7.0209   -1.0692 H         1 <0>         0.3833
     51 H25         0.5652    8.2471   -2.1328 H         1 <0>         0.3916
@<TRIPOS>BOND
     1    1    2 1
     2    1   27 1
     3    1   28 1
     4    1   29 1
     5    2    3 1
     6    2    4 1
     7    2    5 1
     8    3   30 1
     9    3   31 1
    10    3   32 1
    11    4   33 1
    12    4   34 1
    13    4   35 1
    14    5   10 ar
    15    5    6 ar
    16    6    7 ar
    17    6   36 1
    18    7    8 ar
    19    7   16 1
    20    8    9 ar
    21    8   37 1
    22    9   10 ar
    23    9   12 1
    24   10   11 1
    25   11   38 1
    26   12   13 1
    27   12   14 1
    28   12   15 1
    29   13   39 1
    30   13   40 1
    31   13   41 1
    32   14   42 1
    33   14   43 1
    34   14   44 1
    35   15   45 1
    36   15   46 1
    37   15   47 1
    38   16   17 2
    39   16   48 1
    40   17   22 1
    41   17   18 1
    42   18   19 2
    43   18   20 1
    44   20   21 2
    45   21   22 1
    46   21   23 1
    47   23   24 2
    48   24   25 1
    49   24   26 1
    50   25   49 1
    51   26   50 1
    52   26   51 1
@<TRIPOS>MOLECULE
CHEMBL432945
   46    49     0     0     0
SMALL
USER_CHARGES

@<TRIPOS>ATOM
      1 C1         -0.0173    1.4248    0.0099 C.3       1 <0>         0.0262
      2 O1          0.0021   -0.0041    0.0020 O.3       1 <0>        -0.3164
      3 C2         -1.1999   -0.6372    0.0101 C.ar      1 <0>         0.1322
      4 C3         -2.3736    0.1055    0.0195 C.ar      1 <0>        -0.2070
      5 C4         -3.5950   -0.5322    0.0272 C.ar      1 <0>        -0.0601
      6 C5         -3.6517   -1.9289    0.0256 C.ar      1 <0>        -0.0808
      7 C6         -2.4679   -2.6720    0.0162 C.ar      1 <0>        -0.0633
      8 C7         -1.2512   -2.0253    0.0031 C.ar      1 <0>        -0.1499
      9 C8         -4.9553   -2.6156    0.0344 C.2       1 <0>        -0.0568
     10 C9         -5.8529   -2.5625   -0.9603 C.2       1 <0>        -0.1060
     11 C10        -7.0770   -3.3845   -0.6171 C.3       1 <0>        -0.0449
     12 C11        -6.6327   -4.2685    0.5560 C.3       1 <0>        -0.1343
     13 C12        -5.4644   -3.4843    1.1649 C.3       1 <0>        -0.0501
     14 C13        -7.6180   -5.0533    1.4033 C.3       1 <0>        -0.1626
     15 C14        -6.6379   -5.7848    0.4798 C.3       1 <0>        -0.1630
     16 C15        -5.6728   -1.8085   -2.2138 C.ar      1 <0>         0.0350
     17 C16        -6.5026   -0.7226   -2.5053 C.ar      1 <0>        -0.1314
     18 C17        -6.3279   -0.0214   -3.6800 C.ar      1 <0>        -0.0195
     19 C18        -5.3341   -0.3912   -4.5692 C.ar      1 <0>        -0.6797
     20 C19        -4.5088   -1.4657   -4.2874 C.ar      1 <0>        -0.0132
     21 C20        -4.6677   -2.1724   -3.1138 C.ar      1 <0>        -0.1221
     22 S1         -5.1188    0.5103   -6.0677 S.o2      1 <0>         2.7002
     23 O2         -4.4784   -0.3690   -6.9822 O.2       1 <0>        -0.9622
     24 O3         -6.3659    1.1291   -6.3522 O.2       1 <0>        -0.9607
     25 N1         -4.0450    1.7315   -5.7546 N.pl3     1 <0>        -1.2481
     26 H1          1.0053    1.8021    0.0021 H         1 <0>         0.1020
     27 H2         -0.5445    1.7859   -0.8732 H         1 <0>         0.0561
     28 H3         -0.5275    1.7763    0.9067 H         1 <0>         0.0565
     29 H4         -2.3287    1.1846    0.0211 H         1 <0>         0.1296
     30 H5         -4.5071    0.0462    0.0349 H         1 <0>         0.1233
     31 H6         -2.5068   -3.7513    0.0152 H         1 <0>         0.1309
     32 H7         -0.3360   -2.5986   -0.0083 H         1 <0>         0.1334
     33 H8         -7.8983   -2.7351   -0.3140 H         1 <0>         0.0845
     34 H9         -7.3718   -4.0003   -1.4668 H         1 <0>         0.0760
     35 H10        -4.6830   -4.1651    1.5027 H         1 <0>         0.0779
     36 H11        -5.8144   -2.8660    1.9915 H         1 <0>         0.0859
     37 H12        -7.4320   -5.1031    2.4761 H         1 <0>         0.0980
     38 H13        -8.6669   -5.0300    1.1077 H         1 <0>         0.0978
     39 H14        -7.0424   -6.2425   -0.4230 H         1 <0>         0.0968
     40 H15        -5.8075   -6.3156    0.9455 H         1 <0>         0.0972
     41 H16        -7.2791   -0.4333   -1.8126 H         1 <0>         0.1345
     42 H17        -6.9684    0.8180   -3.9067 H         1 <0>         0.1436
     43 H18        -3.7358   -1.7490   -4.9864 H         1 <0>         0.1430
     44 H19        -4.0198   -3.0078   -2.8929 H         1 <0>         0.1331
     45 H20        -3.4652    2.0601   -6.4593 H         1 <0>         0.4220
     46 H21        -3.9959    2.1182   -4.8663 H         1 <0>         0.4167
@<TRIPOS>BOND
     1    1    2 1
     2    1   26 1
     3    1   27 1
     4    1   28 1
     5    2    3 1
     6    3    8 ar
     7    3    4 ar
     8    4    5 ar
     9    4   29 1
    10    5    6 ar
    11    5   30 1
    12    6    7 ar
    13    6    9 1
    14    7    8 ar
    15    7   31 1
    16    8   32 1
    17    9   13 1
    18    9   10 2
    19   10   11 1
    20   10   16 1
    21   11   12 1
    22   11   33 1
    23   11   34 1
    24   12   15 1
    25   12   13 1
    26   12   14 1
    27   13   35 1
    28   13   36 1
    29   14   15 1
    30   14   37 1
    31   14   38 1
    32   15   39 1
    33   15   40 1
    34   16   21 ar
    35   16   17 ar
    36   17   18 ar
    37   17   41 1
    38   18   19 ar
    39   18   42 1
    40   19   20 ar
    41   19   22 1
    42   20   21 ar
    43   20   43 1
    44   21   44 1
    45   22   23 2
    46   22   24 2
    47   22   25 1
    48   25   45 1
    49   25   46 1
@<TRIPOS>MOLECULE
CHEMBL64370
   40    44     0     0     0
SMALL
USER_CHARGES

@<TRIPOS>ATOM
      1 C1         -0.0184    1.5028    0.0103 C.3       1 <0>        -0.0498
      2 C2          0.0021   -0.0041    0.0020 C.2       1 <0>        -0.2410
      3 C3         -1.0301   -0.8826    0.0016 C.2       1 <0>         0.0692
      4 N1         -0.7248   -2.1673   -0.0067 N.2       1 <0>        -0.5301
      5 C4          0.5283   -2.5681   -0.0141 C.2       1 <0>         0.3019
      6 S1          1.3925   -1.1239   -0.0179 S.3       1 <0>         0.0732
      7 N2          1.0188   -3.8676   -0.0233 N.am      1 <0>        -0.6167
      8 C5          0.1648   -4.9102   -0.0259 C.2       1 <0>         0.6368
      9 O1         -1.0368   -4.7131   -0.0202 O.2       1 <0>        -0.4834
     10 C6          0.6811   -6.2781   -0.0355 C.2       1 <0>        -0.4368
     11 C7          0.9910   -7.1106    1.1391 C.ar      1 <0>         0.0411
     12 C8          0.9415   -6.9891    2.5251 C.ar      1 <0>        -0.1611
     13 C9          1.3401   -8.0537    3.3140 C.ar      1 <0>         0.0922
     14 C10         1.7915   -9.2483    2.7537 C.ar      1 <0>        -0.1776
     15 C11         1.8422   -9.3718    1.3862 C.ar      1 <0>        -0.0556
     16 C12         1.4456   -8.3120    0.6045 C.ar      1 <0>         0.0429
     17 N3          1.4375   -8.2747   -0.7658 N.pl3     1 <0>        -0.4557
     18 C13         0.9702   -7.0505   -1.1563 C.2       1 <0>         0.4900
     19 O2          0.8154   -6.6498   -2.4380 O.3       1 <0>        -0.6644
     20 C14         1.8654   -9.3992   -1.4936 C.ar      1 <0>         0.1747
     21 C15         1.8572   -9.3534   -2.8828 C.ar      1 <0>        -0.1141
     22 C16         2.2735  -10.4480   -3.6133 C.ar      1 <0>        -0.1289
     23 C17         2.7000  -11.5954   -2.9653 C.ar      1 <0>         0.0638
     24 C18         2.7102  -11.6451   -1.5812 C.ar      1 <0>        -0.1247
     25 C19         2.2954  -10.5520   -0.8485 C.ar      1 <0>        -0.0919
     26 C20         2.3129  -10.6152    0.6676 C.3       1 <0>        -0.0293
     27 F1          3.1056  -12.6657   -3.6829 F         1 <0>        -0.1452
     28 F2          1.2914   -7.9328    4.6587 F         1 <0>        -0.1516
     29 H1          1.0042    1.8801    0.0026 H         1 <0>         0.0678
     30 H2         -0.5455    1.8639   -0.8728 H         1 <0>         0.0747
     31 H3         -0.5286    1.8543    0.9071 H         1 <0>         0.0746
     32 H4         -2.0566   -0.5469    0.0081 H         1 <0>         0.1682
     33 H5          1.9760   -4.0246   -0.0278 H         1 <0>         0.4230
     34 H6          0.5955   -6.0728    2.9801 H         1 <0>         0.1250
     35 H7          2.0982  -10.0672    3.3876 H         1 <0>         0.1305
     36 H8          1.5245   -8.4604   -3.3911 H         1 <0>         0.1626
     37 H9          2.2662  -10.4100   -4.6926 H         1 <0>         0.1365
     38 H10         3.0427  -12.5395   -1.0754 H         1 <0>         0.1386
     39 H11         3.3327  -10.8279    0.9882 H         1 <0>         0.0854
     40 H12         1.6828  -11.4479    0.9801 H         1 <0>         0.0852
@<TRIPOS>BOND
     1    1    2 1
     2    1   29 1
     3    1   30 1
     4    1   31 1
     5    2    6 1
     6    2    3 2
     7    3    4 1
     8    3   32 1
     9    4    5 2
    10    5    6 1
    11    5    7 1
    12    7    8 am
    13    7   33 1
    14    8    9 2
    15    8   10 1
    16   10   18 2
    17   10   11 1
    18   11   16 ar
    19   11   12 ar
    20   12   13 ar
    21   12   34 1
    22   13   14 ar
    23   13   28 1
    24   14   15 ar
    25   14   35 1
    26   15   26 1
    27   15   16 ar
    28   16   17 1
    29   17   18 1
    30   17   20 1
    31   18   19 1
    32   20   25 ar
    33   20   21 ar
    34   21   22 ar
    35   21   36 1
    36   22   23 ar
    37   22   37 1
    38   23   24 ar
    39   23   27 1
    40   24   25 ar
    41   24   38 1
    42   25   26 1
    43   26   39 1
    44   26   40 1
@<TRIPOS>MOLECULE
CHEMBL356510
   51    52     0     0     0
SMALL
USER_CHARGES

@<TRIPOS>ATOM
      1 C1         -0.0184    1.5028    0.0103 C.3       1 <0>        -0.0761
      2 C2          0.0021   -0.0041    0.0020 C.2       1 <0>         0.0743
      3 C3          0.0079   -0.8093   -1.1352 C.2       1 <0>        -0.2482
      4 C4          0.0282   -2.1258   -0.7159 C.2       1 <0>         0.1137
      5 N1          0.0344   -2.1105    0.6502 N.pl3     1 <0>        -0.4735
      6 H1          0.0480   -2.8874    1.2309 H         1 <0>         0.4374
      7 N2          0.0230   -0.7721    1.0619 N.2       1 <0>        -0.2874
      8 C5          0.0402   -3.3156   -1.5755 C.2       1 <0>        -0.0919
      9 C6          0.0599   -4.5433   -1.0249 C.2       1 <0>        -0.0892
     10 C7          0.0720   -5.7369   -1.8873 C.ar      1 <0>        -0.0656
     11 C8          0.0688   -5.5971   -3.2785 C.ar      1 <0>        -0.1010
     12 C9          0.0806   -6.7170   -4.0811 C.ar      1 <0>        -0.0892
     13 C10         0.0956   -7.9833   -3.5103 C.ar      1 <0>         0.1229
     14 C11         0.0989   -8.1274   -2.1288 C.ar      1 <0>        -0.0903
     15 C12         0.0925   -7.0136   -1.3176 C.ar      1 <0>        -0.0969
     16 C13         0.1152   -9.5042   -1.5161 C.3       1 <0>        -0.0214
     17 C14         0.1156   -9.3837    0.0091 C.3       1 <0>        -0.1473
     18 C15        -1.1259  -10.2775   -1.9663 C.3       1 <0>        -0.1421
     19 C16         1.3725  -10.2491   -1.9691 C.3       1 <0>        -0.1425
     20 O1          0.1068   -9.0845   -4.3059 O.3       1 <0>        -0.4849
     21 C17         0.0767   -6.5678   -5.5807 C.3       1 <0>        -0.0214
     22 C18         0.0590   -5.0820   -5.9454 C.3       1 <0>        -0.1481
     23 C19         1.3327   -7.2205   -6.1614 C.3       1 <0>        -0.1426
     24 C20        -1.1656   -7.2495   -6.1578 C.3       1 <0>        -0.1422
     25 H2          1.0042    1.8801    0.0026 H         1 <0>         0.0784
     26 H3         -0.5455    1.8639   -0.8728 H         1 <0>         0.0793
     27 H4         -0.5286    1.8543    0.9071 H         1 <0>         0.0737
     28 H5         -0.0021   -0.4665   -2.1593 H         1 <0>         0.1518
     29 H6          0.0332   -3.2056   -2.6499 H         1 <0>         0.1426
     30 H7          0.0669   -4.6532    0.0495 H         1 <0>         0.1155
     31 H8          0.0568   -4.6130   -3.7232 H         1 <0>         0.1339
     32 H9          0.0995   -7.1267   -0.2435 H         1 <0>         0.1316
     33 H10        -0.7801   -8.8529    0.3319 H         1 <0>         0.0583
     34 H11         0.1274  -10.3794    0.4523 H         1 <0>         0.0603
     35 H12         0.9997   -8.8327    0.3299 H         1 <0>         0.0576
     36 H13        -1.1261  -10.3633   -3.0529 H         1 <0>         0.0754
     37 H14        -1.1140  -11.2733   -1.5232 H         1 <0>         0.0547
     38 H15        -2.0216   -9.7468   -1.6435 H         1 <0>         0.0510
     39 H16         2.2566   -9.6982   -1.6484 H         1 <0>         0.0542
     40 H17         1.3843  -11.2449   -1.5260 H         1 <0>         0.0613
     41 H18         1.3722  -10.3349   -3.0558 H         1 <0>         0.0584
     42 H19         0.9934   -9.3934   -4.5376 H         1 <0>         0.3825
     43 H20         0.9440   -4.5964   -5.5343 H         1 <0>         0.0581
     44 H21         0.0561   -4.9741   -7.0300 H         1 <0>         0.0609
     45 H22        -0.8359   -4.6170   -5.5317 H         1 <0>         0.0588
     46 H23         1.3454   -8.2790   -5.9016 H         1 <0>         0.0581
     47 H24         1.3299   -7.1126   -7.2461 H         1 <0>         0.0615
     48 H25         2.2178   -6.7349   -5.7503 H         1 <0>         0.0544
     49 H26        -2.0604   -6.7845   -5.7441 H         1 <0>         0.0512
     50 H27        -1.1684   -7.1416   -7.2425 H         1 <0>         0.0549
     51 H28        -1.1529   -8.3080   -5.8980 H         1 <0>         0.0751
@<TRIPOS>BOND
     1    1    2 1
     2    1   25 1
     3    1   26 1
     4    1   27 1
     5    2    7 2
     6    2    3 1
     7    3    4 2
     8    3   28 1
     9    4    5 1
    10    4    8 1
    11    5    6 1
    12    5    7 1
    13    8    9 2
    14    8   29 1
    15    9   10 1
    16    9   30 1
    17   10   15 ar
    18   10   11 ar
    19   11   12 ar
    20   11   31 1
    21   12   13 ar
    22   12   21 1
    23   13   14 ar
    24   13   20 1
    25   14   15 ar
    26   14   16 1
    27   15   32 1
    28   16   17 1
    29   16   18 1
    30   16   19 1
    31   17   33 1
    32   17   34 1
    33   17   35 1
    34   18   36 1
    35   18   37 1
    36   18   38 1
    37   19   39 1
    38   19   40 1
    39   19   41 1
    40   20   42 1
    41   21   22 1
    42   21   23 1
    43   21   24 1
    44   22   43 1
    45   22   44 1
    46   22   45 1
    47   23   46 1
    48   23   47 1
    49   23   48 1
    50   24   49 1
    51   24   50 1
    52   24   51 1
@<TRIPOS>MOLECULE
CHEMBL356510__1
   51    52     0     0     0
SMALL
USER_CHARGES

@<TRIPOS>ATOM
      1 C1         -0.0184    1.5028    0.0103 C.3       1 <0>        -0.0956
      2 C2          0.0021   -0.0041    0.0020 C.2       1 <0>         0.0872
      3 C3          0.0233   -0.8026    1.0901 C.2       1 <0>        -0.2596
      4 C4          0.0367   -2.1417    0.6434 C.2       1 <0>         0.1070
      5 N1          0.0238   -2.1276   -0.6758 N.2       1 <0>        -0.2868
      6 H1         -0.0214   -0.4848   -2.0157 H         1 <0>         0.4384
      7 N2         -0.0035   -0.7916   -1.0956 N.pl3     1 <0>        -0.4733
      8 C5          0.0614   -3.3423    1.4988 C.2       1 <0>        -0.0846
      9 C6          0.0722   -4.5635    0.9414 C.2       1 <0>        -0.0752
     10 C7          0.0969   -5.7635    1.7964 C.ar      1 <0>        -0.0634
     11 C8          0.1033   -5.6327    3.1880 C.ar      1 <0>        -0.1028
     12 C9          0.1260   -6.7578    3.9834 C.ar      1 <0>        -0.0904
     13 C10         0.1424   -8.0202    3.4043 C.ar      1 <0>         0.1193
     14 C11         0.1362   -8.1551    2.0220 C.ar      1 <0>        -0.0911
     15 C12         0.1082   -7.0360    1.2184 C.ar      1 <0>        -0.0965
     16 C13         0.1546   -9.5277    1.4000 C.3       1 <0>        -0.0210
     17 C14         0.1432   -9.3970   -0.1243 C.3       1 <0>        -0.1473
     18 C15         1.4187  -10.2695    1.8388 C.3       1 <0>        -0.1416
     19 C16        -1.0794  -10.3100    1.8541 C.3       1 <0>        -0.1421
     20 O1          0.1652   -9.1265    4.1926 O.3       1 <0>        -0.4854
     21 C17         0.1334   -6.6183    5.4839 C.3       1 <0>        -0.0209
     22 C18         0.1126   -5.1349    5.8583 C.3       1 <0>        -0.1478
     23 C19        -1.1016   -7.3086    6.0664 C.3       1 <0>        -0.1422
     24 C20         1.3966   -7.2696    6.0504 C.3       1 <0>        -0.1419
     25 H2          1.0042    1.8801    0.0026 H         1 <0>         0.0825
     26 H3         -0.5455    1.8639   -0.8728 H         1 <0>         0.0719
     27 H4         -0.5286    1.8543    0.9071 H         1 <0>         0.0880
     28 H5          0.0294   -0.4753    2.1193 H         1 <0>         0.1499
     29 H6          0.0709   -3.2393    2.5738 H         1 <0>         0.1338
     30 H7          0.0628   -4.6665   -0.1336 H         1 <0>         0.1270
     31 H8          0.0909   -4.6516    3.6391 H         1 <0>         0.1334
     32 H9          0.0988   -7.1420    0.1436 H         1 <0>         0.1320
     33 H10         1.0223   -8.8397   -0.4478 H         1 <0>         0.0588
     34 H11         0.1565  -10.3897   -0.5742 H         1 <0>         0.0593
     35 H12        -0.7574   -8.8685   -0.4370 H         1 <0>         0.0581
     36 H13         1.4269  -10.3626    2.9248 H         1 <0>         0.0750
     37 H14         1.4321  -11.2622    1.3890 H         1 <0>         0.0538
     38 H15         2.2978   -9.7121    1.5153 H         1 <0>         0.0509
     39 H16        -1.9800   -9.7815    1.5415 H         1 <0>         0.0542
     40 H17        -1.0660  -11.3027    1.4042 H         1 <0>         0.0604
     41 H18        -1.0712  -10.4031    2.9401 H         1 <0>         0.0581
     42 H19        -0.7115   -9.4609    4.4265 H         1 <0>         0.3812
     43 H20        -0.7873   -4.6709    5.4546 H         1 <0>         0.0582
     44 H21         0.1180   -5.0340    6.9436 H         1 <0>         0.0598
     45 H22         0.9924   -4.6431    5.4433 H         1 <0>         0.0589
     46 H23        -1.0868   -8.3654    5.7997 H         1 <0>         0.0580
     47 H24        -1.0962   -7.2077    7.1517 H         1 <0>         0.0604
     48 H25        -2.0015   -6.8446    5.6628 H         1 <0>         0.0543
     49 H26         2.2763   -6.7778    5.6355 H         1 <0>         0.0511
     50 H27         1.4019   -7.1687    7.1357 H         1 <0>         0.0539
     51 H28         1.4113   -8.3264    5.7837 H         1 <0>         0.0749
@<TRIPOS>BOND
     1    1    2 1
     2    1   25 1
     3    1   26 1
     4    1   27 1
     5    2    3 2
     6    2    7 1
     7    3   28 1
     8    3    4 1
     9    4    8 1
    10    4    5 2
    11    5    7 1
    12    6    7 1
    13    8    9 2
    14    8   29 1
    15    9   10 1
    16    9   30 1
    17   10   15 ar
    18   10   11 ar
    19   11   12 ar
    20   11   31 1
    21   12   13 ar
    22   12   21 1
    23   13   14 ar
    24   13   20 1
    25   14   15 ar
    26   14   16 1
    27   15   32 1
    28   16   17 1
    29   16   18 1
    30   16   19 1
    31   17   33 1
    32   17   34 1
    33   17   35 1
    34   18   36 1
    35   18   37 1
    36   18   38 1
    37   19   39 1
    38   19   40 1
    39   19   41 1
    40   20   42 1
    41   21   22 1
    42   21   23 1
    43   21   24 1
    44   22   43 1
    45   22   44 1
    46   22   45 1
    47   23   46 1
    48   23   47 1
    49   23   48 1
    50   24   49 1
    51   24   50 1
    52   24   51 1
@<TRIPOS>MOLECULE
CHEMBL148922
   42    43     0     0     0
SMALL
USER_CHARGES

@<TRIPOS>ATOM
      1 C1         -0.0184    1.5028    0.0103 C.3       1 <0>        -0.0757
      2 C2          0.0021   -0.0041    0.0020 C.2       1 <0>        -0.1935
      3 C3         -1.0484   -0.8577    0.0019 C.2       1 <0>        -0.2139
      4 C4         -0.7217   -2.2116   -0.0076 C.2       1 <0>         0.1329
      5 N1          0.5637   -2.5119   -0.0155 N.2       1 <0>        -0.4660
      6 S1          1.3320   -1.0261   -0.0167 S.3       1 <0>         0.3207
      7 C5         -1.7599   -3.2575   -0.0085 C.2       1 <0>        -0.1013
      8 C6         -1.4076   -4.5533   -0.0178 C.2       1 <0>        -0.0582
      9 C7         -2.4457   -5.5990   -0.0186 C.ar      1 <0>        -0.0313
     10 C8         -2.0810   -6.9483   -0.0225 C.ar      1 <0>        -0.1228
     11 C9         -3.0542   -7.9251   -0.0228 C.ar      1 <0>        -0.0568
     12 C10        -4.3960   -7.5724   -0.0192 C.ar      1 <0>         0.0862
     13 C11        -4.7670   -6.2296   -0.0153 C.ar      1 <0>         0.1063
     14 C12        -3.7975   -5.2444   -0.0097 C.ar      1 <0>        -0.1908
     15 O1         -6.0834   -5.8880   -0.0123 O.3       1 <0>        -0.3064
     16 C13        -6.3916   -4.4927   -0.0084 C.3       1 <0>         0.0237
     17 O2         -5.3512   -8.5397   -0.0200 O.3       1 <0>        -0.4781
     18 C14        -2.6594   -9.3795   -0.0275 C.3       1 <0>        -0.0216
     19 C15        -1.1337   -9.4937   -0.0314 C.3       1 <0>        -0.1475
     20 C16        -3.2189  -10.0639    1.2212 C.3       1 <0>        -0.1436
     21 C17        -3.2247  -10.0574   -1.2772 C.3       1 <0>        -0.1433
     22 H1          1.0042    1.8801    0.0026 H         1 <0>         0.0771
     23 H2         -0.5455    1.8639   -0.8728 H         1 <0>         0.0845
     24 H3         -0.5286    1.8543    0.9071 H         1 <0>         0.0845
     25 H4         -2.0716   -0.5121    0.0092 H         1 <0>         0.1540
     26 H5         -2.8041   -2.9819   -0.0015 H         1 <0>         0.1326
     27 H6         -0.3634   -4.8290   -0.0248 H         1 <0>         0.1344
     28 H7         -1.0373   -7.2257   -0.0257 H         1 <0>         0.1375
     29 H8         -4.0839   -4.2031   -0.0025 H         1 <0>         0.1351
     30 H9         -5.9697   -4.0249   -0.8979 H         1 <0>         0.0561
     31 H10        -7.4734   -4.3595   -0.0062 H         1 <0>         0.1028
     32 H11        -5.9667   -4.0292    0.8820 H         1 <0>         0.0555
     33 H12        -5.6259   -8.8220    0.8632 H         1 <0>         0.3828
     34 H13        -0.7309   -9.0108    0.8589 H         1 <0>         0.0594
     35 H14        -0.8481  -10.5456   -0.0348 H         1 <0>         0.0615
     36 H15        -0.7351   -9.0061   -0.9210 H         1 <0>         0.0601
     37 H16        -4.3059   -9.9825    1.2240 H         1 <0>         0.0599
     38 H17        -2.9333  -11.1158    1.2178 H         1 <0>         0.0628
     39 H18        -2.8162   -9.5809    2.1115 H         1 <0>         0.0554
     40 H19        -2.8261   -9.5698   -2.1669 H         1 <0>         0.0524
     41 H20        -2.9392  -11.1093   -1.2806 H         1 <0>         0.0567
     42 H21        -4.3117   -9.9760   -1.2745 H         1 <0>         0.0757
@<TRIPOS>BOND
     1    1    2 1
     2    1   22 1
     3    1   23 1
     4    1   24 1
     5    2    6 1
     6    2    3 2
     7    3    4 1
     8    3   25 1
     9    4    5 2
    10    4    7 1
    11    5    6 1
    12    7    8 2
    13    7   26 1
    14    8    9 1
    15    8   27 1
    16    9   14 ar
    17    9   10 ar
    18   10   11 ar
    19   10   28 1
    20   11   12 ar
    21   11   18 1
    22   12   13 ar
    23   12   17 1
    24   13   14 ar
    25   13   15 1
    26   14   29 1
    27   15   16 1
    28   16   30 1
    29   16   31 1
    30   16   32 1
    31   17   33 1
    32   18   19 1
    33   18   20 1
    34   18   21 1
    35   19   34 1
    36   19   35 1
    37   19   36 1
    38   20   37 1
    39   20   38 1
    40   20   39 1
    41   21   40 1
    42   21   41 1
    43   21   42 1
@<TRIPOS>MOLECULE
CHEMBL149278
   50    51     0     0     0
SMALL
USER_CHARGES

@<TRIPOS>ATOM
      1 C1         -0.0184    1.5028    0.0103 C.3       1 <0>        -0.0906
      2 C2          0.0021   -0.0041    0.0020 C.2       1 <0>         0.0748
      3 C3         -1.0764   -0.8051    0.0026 C.2       1 <0>        -0.2823
      4 C4         -0.6248   -2.1499   -0.0073 C.2       1 <0>         0.1404
      5 N1          0.6896   -2.1299   -0.0135 N.2       1 <0>        -0.3222
      6 O1          1.1010   -0.7748   -0.0131 O.3       1 <0>        -0.0787
      7 C5         -1.4763   -3.3532   -0.0094 C.2       1 <0>        -0.1130
      8 C6         -0.9148   -4.5730   -0.0192 C.2       1 <0>        -0.0456
      9 C7         -1.7657   -5.7755   -0.0213 C.ar      1 <0>        -0.0748
     10 C8         -3.1580   -5.6493   -0.0189 C.ar      1 <0>        -0.0968
     11 C9         -3.9497   -6.7768   -0.0213 C.ar      1 <0>        -0.0920
     12 C10        -3.3665   -8.0377   -0.0257 C.ar      1 <0>         0.1272
     13 C11        -1.9834   -8.1682   -0.0280 C.ar      1 <0>        -0.0922
     14 C12        -1.1835   -7.0465   -0.0314 C.ar      1 <0>        -0.0898
     15 C13        -1.3571   -9.5389   -0.0327 C.3       1 <0>        -0.0213
     16 C14         0.1669   -9.4032   -0.0346 C.3       1 <0>        -0.1481
     17 C15        -1.7993  -10.3060    1.2150 C.3       1 <0>        -0.1420
     18 C16        -1.8030  -10.2990   -1.2834 C.3       1 <0>        -0.1424
     19 O2         -4.1511   -9.1465   -0.0271 O.3       1 <0>        -0.4846
     20 C17        -5.4507   -6.6422   -0.0188 C.3       1 <0>        -0.0211
     21 C18        -5.8297   -5.1599   -0.0135 C.3       1 <0>        -0.1482
     22 C19        -6.0248   -7.3110   -1.2693 C.3       1 <0>        -0.1426
     23 C20        -6.0213   -7.3189    1.2292 C.3       1 <0>        -0.1423
     24 H1          1.0042    1.8801    0.0026 H         1 <0>         0.0855
     25 H2         -0.5455    1.8639   -0.8728 H         1 <0>         0.0966
     26 H3         -0.5286    1.8543    0.9071 H         1 <0>         0.0967
     27 H4         -2.1068   -0.4818    0.0097 H         1 <0>         0.1604
     28 H5         -2.5517   -3.2537   -0.0030 H         1 <0>         0.1416
     29 H6          0.1606   -4.6725   -0.0255 H         1 <0>         0.1296
     30 H7         -3.6123   -4.6695   -0.0148 H         1 <0>         0.1341
     31 H8         -0.1084   -7.1489   -0.0374 H         1 <0>         0.1340
     32 H9          0.4845   -8.8617    0.8565 H         1 <0>         0.0590
     33 H10         0.6199  -10.3946   -0.0380 H         1 <0>         0.0606
     34 H11         0.4819   -8.8567   -0.9235 H         1 <0>         0.0584
     35 H12        -2.8850  -10.4026    1.2163 H         1 <0>         0.0751
     36 H13        -1.3463  -11.2974    1.2116 H         1 <0>         0.0549
     37 H14        -1.4817   -9.7644    2.1060 H         1 <0>         0.0513
     38 H15        -1.4879   -9.7526   -2.1724 H         1 <0>         0.0545
     39 H16        -1.3499  -11.2904   -1.2869 H         1 <0>         0.0614
     40 H17        -2.8887  -10.3957   -1.2821 H         1 <0>         0.0581
     41 H18        -4.3799   -9.4653   -0.9110 H         1 <0>         0.3831
     42 H19        -5.4232   -4.6778   -0.9026 H         1 <0>         0.0580
     43 H20        -6.9154   -5.0625   -0.0117 H         1 <0>         0.0609
     44 H21        -5.4207   -4.6834    0.8774 H         1 <0>         0.0587
     45 H22        -5.7548   -8.3670   -1.2730 H         1 <0>         0.0582
     46 H23        -7.1105   -7.2136   -1.2675 H         1 <0>         0.0614
     47 H24        -5.6183   -6.8289   -2.1583 H         1 <0>         0.0545
     48 H25        -5.6122   -6.8424    2.1201 H         1 <0>         0.0513
     49 H26        -7.1069   -7.2215    1.2310 H         1 <0>         0.0549
     50 H27        -5.7512   -8.3749    1.2254 H         1 <0>         0.0753
@<TRIPOS>BOND
     1    1    2 1
     2    1   24 1
     3    1   25 1
     4    1   26 1
     5    2    6 1
     6    2    3 2
     7    3    4 1
     8    3   27 1
     9    4    5 2
    10    4    7 1
    11    5    6 1
    12    7    8 2
    13    7   28 1
    14    8    9 1
    15    8   29 1
    16    9   14 ar
    17    9   10 ar
    18   10   11 ar
    19   10   30 1
    20   11   12 ar
    21   11   20 1
    22   12   13 ar
    23   12   19 1
    24   13   14 ar
    25   13   15 1
    26   14   31 1
    27   15   16 1
    28   15   17 1
    29   15   18 1
    30   16   32 1
    31   16   33 1
    32   16   34 1
    33   17   35 1
    34   17   36 1
    35   17   37 1
    36   18   38 1
    37   18   39 1
    38   18   40 1
    39   19   41 1
    40   20   21 1
    41   20   22 1
    42   20   23 1
    43   21   42 1
    44   21   43 1
    45   21   44 1
    46   22   45 1
    47   22   46 1
    48   22   47 1
    49   23   48 1
    50   23   49 1
    51   23   50 1
@<TRIPOS>MOLECULE
CHEMBL368148
   56    59     0     0     0
SMALL
USER_CHARGES

@<TRIPOS>ATOM
      1 C1          1.6064    1.3750   -2.2573 C.3       1 <0>        -0.1198
      2 C2          1.4497   -0.1014   -1.9989 C.ar      1 <0>        -0.0698
      3 C3          0.7685   -0.8912   -2.9078 C.ar      1 <0>        -0.1194
      4 C4          0.6215   -2.2435   -2.6770 C.ar      1 <0>        -0.0816
      5 C5          1.1621   -2.8142   -1.5244 C.ar      1 <0>        -0.0498
      6 C6          1.8483   -2.0124   -0.6120 C.ar      1 <0>        -0.0983
      7 C7          1.9926   -0.6622   -0.8566 C.ar      1 <0>        -0.1175
      8 C8          1.0078   -4.2636   -1.2705 C.2       1 <0>         0.1351
      9 C9          0.8407   -5.2338   -2.2145 C.2       1 <0>        -0.2212
     10 C10         0.7359   -6.4684   -1.5480 C.2       1 <0>         0.1819
     11 N1          0.8363   -6.2486   -0.2513 N.2       1 <0>        -0.2553
     12 N2          1.0127   -4.8742   -0.0480 N.pl3     1 <0>        -0.3095
     13 C11         1.1644   -4.2372    1.1905 C.ar      1 <0>         0.1005
     14 C12         0.4784   -3.0587    1.4544 C.ar      1 <0>        -0.0692
     15 C13         0.6285   -2.4316    2.6750 C.ar      1 <0>        -0.1353
     16 C14         1.4647   -2.9780    3.6380 C.ar      1 <0>         0.1386
     17 C15         2.1507   -4.1551    3.3749 C.ar      1 <0>        -0.1954
     18 C16         1.9965   -4.7868    2.1572 C.ar      1 <0>        -0.0604
     19 O1          1.6123   -2.3597    4.8395 O.3       1 <0>        -0.3116
     20 C17         2.4889   -2.9777    5.7838 C.3       1 <0>         0.0237
     21 C18         0.5515   -7.7447   -2.1706 C.1       1 <0>        -0.0748
     22 C19         0.4003   -8.7910   -2.6810 C.1       1 <0>        -0.1474
     23 C20         0.2107  -10.1030   -3.3210 C.3       1 <0>         0.2587
     24 N3          0.1494  -11.1440   -2.2921 N.am      1 <0>        -0.4668
     25 C21        -0.9600  -11.2832   -1.5395 C.2       1 <0>         0.5514
     26 O2         -1.9423  -10.6067   -1.7740 O.2       1 <0>        -0.5043
     27 C22        -0.9822  -12.2588   -0.4289 C.ar      1 <0>        -0.1428
     28 C23         0.1457  -12.4316    0.3749 C.ar      1 <0>        -0.1077
     29 C24         0.1182  -13.3433    1.4100 C.ar      1 <0>        -0.1174
     30 C25        -1.0240  -14.0857    1.6518 C.ar      1 <0>        -0.0924
     31 C26        -2.1454  -13.9196    0.8585 C.ar      1 <0>        -0.1196
     32 C27        -2.1332  -13.0068   -0.1759 C.ar      1 <0>        -0.0603
     33 O3          1.2558  -12.0039   -2.0881 O.3       1 <0>        -0.3270
     34 H1          2.5204    1.5495   -2.8250 H         1 <0>         0.0742
     35 H2          0.7503    1.7372   -2.8265 H         1 <0>         0.0695
     36 H3          1.6620    1.9063   -1.3071 H         1 <0>         0.0690
     37 H4          0.3505   -0.4482   -3.7997 H         1 <0>         0.1299
     38 H5          0.0889   -2.8589   -3.3870 H         1 <0>         0.1314
     39 H6          2.2688   -2.4483    0.2823 H         1 <0>         0.1275
     40 H7          2.5268   -0.0411   -0.1529 H         1 <0>         0.1275
     41 H8          0.7962   -5.0815   -3.2828 H         1 <0>         0.1617
     42 H9         -0.1719   -2.6329    0.7046 H         1 <0>         0.1394
     43 H10         0.0951   -1.5152    2.8803 H         1 <0>         0.1442
     44 H11         2.8020   -4.5795    4.1247 H         1 <0>         0.1399
     45 H12         2.5265   -5.7058    1.9544 H         1 <0>         0.1362
     46 H13         2.5159   -2.3837    6.6974 H         1 <0>         0.1044
     47 H14         2.1278   -3.9803    6.0128 H         1 <0>         0.0586
     48 H15         3.4919   -3.0404    5.3616 H         1 <0>         0.0586
     49 H16        -0.7193  -10.0989   -3.8896 H         1 <0>         0.1245
     50 H17         1.0458  -10.3040   -3.9920 H         1 <0>         0.1258
     51 H18         1.0381  -11.8532    0.1867 H         1 <0>         0.1371
     52 H19         0.9902  -13.4780    2.0327 H         1 <0>         0.1337
     53 H20        -1.0403  -14.7984    2.4631 H         1 <0>         0.1313
     54 H21        -3.0337  -14.5024    1.0523 H         1 <0>         0.1342
     55 H22        -3.0107  -12.8745   -0.7914 H         1 <0>         0.1354
     56 H23         1.0919  -12.7108   -1.4490 H         1 <0>         0.3909
@<TRIPOS>BOND
     1    1    2 1
     2    1   34 1
     3    1   35 1
     4    1   36 1
     5    2    7 ar
     6    2    3 ar
     7    3    4 ar
     8    3   37 1
     9    4    5 ar
    10    4   38 1
    11    5    6 ar
    12    5    8 1
    13    6    7 ar
    14    6   39 1
    15    7   40 1
    16    8   12 1
    17    8    9 2
    18    9   10 1
    19    9   41 1
    20   10   11 2
    21   10   21 1
    22   11   12 1
    23   12   13 1
    24   13   18 ar
    25   13   14 ar
    26   14   15 ar
    27   14   42 1
    28   15   16 ar
    29   15   43 1
    30   16   17 ar
    31   16   19 1
    32   17   18 ar
    33   17   44 1
    34   18   45 1
    35   19   20 1
    36   20   46 1
    37   20   47 1
    38   20   48 1
    39   21   22 3
    40   22   23 1
    41   23   24 1
    42   23   49 1
    43   23   50 1
    44   24   25 am
    45   24   33 1
    46   25   26 2
    47   25   27 1
    48   27   32 ar
    49   27   28 ar
    50   28   29 ar
    51   28   51 1
    52   29   30 ar
    53   29   52 1
    54   30   31 ar
    55   30   53 1
    56   31   32 ar
    57   31   54 1
    58   32   55 1
    59   33   56 1
@<TRIPOS>MOLECULE
CHEMBL293122
   33    35     0     0     0
SMALL
USER_CHARGES

@<TRIPOS>ATOM
      1 C1         -0.0167    1.3787    0.0096 C.ar      1 <0>        -0.1725
      2 C2          1.1833    2.0719    0.0019 C.ar      1 <0>        -0.0730
      3 C3          2.3661    1.3328   -0.0130 C.ar      1 <0>        -0.1065
      4 C4          2.3041   -0.0621   -0.0190 C.ar      1 <0>         0.1469
      5 N1          1.1387   -0.6746   -0.0118 N.ar      1 <0>        -0.4753
      6 C5          0.0021   -0.0041    0.0020 C.ar      1 <0>         0.1102
      7 C6          3.5873   -0.8521   -0.0323 C.3       1 <0>        -0.0754
      8 C7          4.6423   -0.1133   -0.8529 C.3       1 <0>        -0.0984
      9 C8          4.7538    1.3197   -0.4124 C.2       1 <0>        -0.1010
     10 C9          3.6838    1.9990   -0.0229 C.2       1 <0>        -0.1088
     11 C10         3.8113    3.4383    0.4053 C.3       1 <0>        -0.0915
     12 C11         3.5066    4.3527   -0.7829 C.3       1 <0>         0.0912
     13 N2          3.6306    5.7519   -0.3667 N.pl3     1 <0>        -0.4079
     14 C12         2.6356    6.5365    0.1510 C.2       1 <0>         0.0232
     15 C13         3.1788    7.7444    0.3947 C.2       1 <0>         0.0055
     16 N3          4.4703    7.6986    0.0357 N.pl3     1 <0>        -0.4762
     17 C14         4.7493    6.5067   -0.4165 C.cat     1 <0>         0.2880
     18 H1         -0.9556    1.9122    0.0259 H         1 <0>         0.1403
     19 H2          1.2021    3.1517    0.0068 H         1 <0>         0.1269
     20 H3         -0.9321   -0.5460    0.0076 H         1 <0>         0.1618
     21 H4          3.9458   -0.9780    0.9894 H         1 <0>         0.0903
     22 H5          3.4051   -1.8316   -0.4744 H         1 <0>         0.0978
     23 H6          5.6066   -0.6045   -0.7231 H         1 <0>         0.0927
     24 H7          4.3638   -0.1441   -1.9063 H         1 <0>         0.0865
     25 H8          5.7196    1.8029   -0.4131 H         1 <0>         0.1245
     26 H9          3.1055    3.6416    1.2106 H         1 <0>         0.0893
     27 H10         4.8264    3.6244    0.7561 H         1 <0>         0.0902
     28 H11         4.2125    4.1494   -1.5883 H         1 <0>         0.1253
     29 H12         2.4916    4.1666   -1.1338 H         1 <0>         0.1243
     30 H13         1.6115    6.2433    0.3293 H         1 <0>         0.2219
     31 H14         2.6647    8.6000    0.8071 H         1 <0>         0.2243
     32 H15         5.7143    6.1790   -0.7740 H         1 <0>         0.2600
     33 H16         5.0988    8.4342    0.1049 H         1 <0>         0.4657
@<TRIPOS>BOND
     1    1    6 ar
     2    1    2 ar
     3    1   18 1
     4    2    3 ar
     5    2   19 1
     6    3   10 1
     7    3    4 ar
     8    4    5 ar
     9    4    7 1
    10    5    6 ar
    11    6   20 1
    12    7    8 1
    13    7   21 1
    14    7   22 1
    15    8    9 1
    16    8   23 1
    17    8   24 1
    18    9   10 2
    19    9   25 1
    20   10   11 1
    21   11   12 1
    22   11   26 1
    23   11   27 1
    24   12   13 1
    25   12   28 1
    26   12   29 1
    27   13   17 1
    28   13   14 1
    29   14   15 2
    30   14   30 1
    31   15   16 1
    32   15   31 1
    33   16   17 2
    34   16   33 1
    35   17   32 1
@<TRIPOS>MOLECULE
CHEMBL293122__1
   32    34     0     0     0
SMALL
USER_CHARGES

@<TRIPOS>ATOM
      1 C1         -0.0167    1.3787    0.0096 C.ar      1 <0>        -0.1732
      2 C2          1.1833    2.0719    0.0019 C.ar      1 <0>        -0.0684
      3 C3          2.3661    1.3328   -0.0130 C.ar      1 <0>        -0.0982
      4 C4          2.3041   -0.0621   -0.0190 C.ar      1 <0>         0.1406
      5 N1          1.1387   -0.6746   -0.0118 N.ar      1 <0>        -0.4798
      6 C5          0.0021   -0.0041    0.0020 C.ar      1 <0>         0.1014
      7 C6          3.5873   -0.8521   -0.0323 C.3       1 <0>        -0.0712
      8 C7          4.6423   -0.1133   -0.8529 C.3       1 <0>        -0.0934
      9 C8          4.7538    1.3197   -0.4124 C.2       1 <0>        -0.1210
     10 C9          3.6838    1.9990   -0.0229 C.2       1 <0>        -0.0955
     11 C10         3.8113    3.4383    0.4053 C.3       1 <0>        -0.0915
     12 C11         3.5066    4.3527   -0.7829 C.3       1 <0>         0.1077
     13 N2          3.6306    5.7519   -0.3667 N.pl3     1 <0>        -0.4605
     14 C12         2.6354    6.5366    0.1505 C.2       1 <0>        -0.0590
     15 C13         3.1787    7.7445    0.3945 C.2       1 <0>        -0.0277
     16 N3          4.4704    7.6985    0.0360 N.2       1 <0>        -0.4947
     17 C14         4.7494    6.5065   -0.4161 C.2       1 <0>         0.1817
     18 H1         -0.9556    1.9122    0.0259 H         1 <0>         0.1381
     19 H2          1.2021    3.1517    0.0068 H         1 <0>         0.1330
     20 H3         -0.9321   -0.5460    0.0076 H         1 <0>         0.1580
     21 H4          3.9458   -0.9780    0.9894 H         1 <0>         0.0875
     22 H5          3.4051   -1.8316   -0.4744 H         1 <0>         0.0931
     23 H6          5.6066   -0.6045   -0.7231 H         1 <0>         0.0880
     24 H7          4.3638   -0.1441   -1.9063 H         1 <0>         0.0814
     25 H8          5.7196    1.8029   -0.4131 H         1 <0>         0.1236
     26 H9          3.1055    3.6416    1.2106 H         1 <0>         0.0801
     27 H10         4.8264    3.6244    0.7561 H         1 <0>         0.0843
     28 H11         4.2125    4.1494   -1.5883 H         1 <0>         0.0976
     29 H12         2.4916    4.1666   -1.1338 H         1 <0>         0.0923
     30 H13         1.6113    6.2436    0.3285 H         1 <0>         0.1724
     31 H14         2.6645    8.6001    0.8066 H         1 <0>         0.1696
     32 H15         5.7145    6.1787   -0.7731 H         1 <0>         0.2036
@<TRIPOS>BOND
     1    1    6 ar
     2    1    2 ar
     3    1   18 1
     4    2    3 ar
     5    2   19 1
     6    3   10 1
     7    3    4 ar
     8    4    5 ar
     9    4    7 1
    10    5    6 ar
    11    6   20 1
    12    7    8 1
    13    7   21 1
    14    7   22 1
    15    8    9 1
    16    8   23 1
    17    8   24 1
    18    9   10 2
    19    9   25 1
    20   10   11 1
    21   11   12 1
    22   11   26 1
    23   11   27 1
    24   12   13 1
    25   12   28 1
    26   12   29 1
    27   13   17 1
    28   13   14 1
    29   14   15 2
    30   14   30 1
    31   15   16 1
    32   15   31 1
    33   16   17 2
    34   17   32 1
@<TRIPOS>MOLECULE
CHEMBL363228
   28    30     0     0     0
SMALL
USER_CHARGES

@<TRIPOS>ATOM
      1 C1         -0.0184    1.5028    0.0103 C.3       1 <0>        -0.0883
      2 C2          0.0021   -0.0041    0.0020 C.2       1 <0>         0.0921
      3 C3         -1.0875   -0.8123    0.0027 C.2       1 <0>        -0.2028
      4 C4         -0.5941   -2.1966   -0.0071 C.2       1 <0>         0.1910
      5 N1          0.7178   -2.1343   -0.0129 N.2       1 <0>        -0.2839
      6 O1          1.0995   -0.7728   -0.0131 O.3       1 <0>        -0.0627
      7 C5         -1.4158   -3.4227   -0.0096 C.2       1 <0>         0.0478
      8 C6         -1.1111   -4.5866   -0.6447 C.2       1 <0>        -0.1375
      9 C7         -2.1659   -5.4810   -0.3808 C.2       1 <0>        -0.1754
     10 C8         -3.0551   -4.8259    0.3953 C.2       1 <0>         0.0459
     11 O2         -2.5955   -3.5854    0.6219 O.3       1 <0>        -0.1473
     12 Cl1        -4.5424   -5.4815    1.0053 Cl        1 <0>         0.0410
     13 C9         -2.5066   -0.3810    0.0120 C.ar      1 <0>        -0.0225
     14 C10        -3.3170   -0.6657    1.1095 C.ar      1 <0>        -0.0917
     15 C11        -4.6366   -0.2615    1.1129 C.ar      1 <0>        -0.1169
     16 C12        -5.1552    0.4250    0.0298 C.ar      1 <0>        -0.1124
     17 C13        -4.3555    0.7104   -1.0622 C.ar      1 <0>        -0.1187
     18 C14        -3.0331    0.3157   -1.0743 C.ar      1 <0>        -0.1024
     19 H1          1.0042    1.8801    0.0026 H         1 <0>         0.0902
     20 H2         -0.5455    1.8639   -0.8728 H         1 <0>         0.0991
     21 H3         -0.5286    1.8543    0.9071 H         1 <0>         0.0995
     22 H4         -0.2304   -4.7859   -1.2372 H         1 <0>         0.1678
     23 H5         -2.2481   -6.4987   -0.7329 H         1 <0>         0.1704
     24 H6         -2.9132   -1.2020    1.9555 H         1 <0>         0.1203
     25 H7         -5.2656   -0.4820    1.9627 H         1 <0>         0.1251
     26 H8         -6.1885    0.7391    0.0366 H         1 <0>         0.1241
     27 H9         -4.7656    1.2467   -1.9051 H         1 <0>         0.1258
     28 H10        -2.4084    0.5429   -1.9255 H         1 <0>         0.1224
@<TRIPOS>BOND
     1    1    2 1
     2    1   19 1
     3    1   20 1
     4    1   21 1
     5    2    6 1
     6    2    3 2
     7    3    4 1
     8    3   13 1
     9    4    5 2
    10    4    7 1
    11    5    6 1
    12    7   11 1
    13    7    8 2
    14    8    9 1
    15    8   22 1
    16    9   10 2
    17    9   23 1
    18   10   11 1
    19   10   12 1
    20   13   18 ar
    21   13   14 ar
    22   14   15 ar
    23   14   24 1
    24   15   16 ar
    25   15   25 1
    26   16   17 ar
    27   16   26 1
    28   17   18 ar
    29   17   27 1
    30   18   28 1
@<TRIPOS>MOLECULE
CHEMBL294100
   50    51     0     0     0
SMALL
USER_CHARGES

@<TRIPOS>ATOM
      1 C1          0.1837    1.5055    0.1221 C.3       1 <0>        -0.1794
      2 C2          0.1058   -0.0211    0.0553 C.3       1 <0>        -0.0211
      3 C3          0.8570   -0.6226    1.2447 C.3       1 <0>        -0.1432
      4 C4         -1.3593   -0.4595    0.1028 C.3       1 <0>        -0.1435
      5 C5          0.7322   -0.5003   -1.2289 C.ar      1 <0>        -0.0775
      6 C6          1.2633    0.4102   -2.1173 C.ar      1 <0>        -0.0892
      7 C7          1.8433   -0.0347   -3.3065 C.ar      1 <0>        -0.1131
      8 C8          1.8829   -1.4006   -3.5911 C.ar      1 <0>        -0.0746
      9 C9          1.3496   -2.3048   -2.6976 C.ar      1 <0>        -0.0950
     10 C10         0.7786   -1.8587   -1.5130 C.ar      1 <0>         0.1416
     11 O1          0.2590   -2.7533   -0.6323 O.3       1 <0>        -0.4819
     12 C11         1.3914   -3.7797   -3.0041 C.3       1 <0>        -0.0211
     13 C12         2.0728   -4.0004   -4.3561 C.3       1 <0>        -0.1487
     14 C13         2.1790   -4.5055   -1.9116 C.3       1 <0>        -0.1434
     15 C14        -0.0350   -4.3305   -3.0559 C.3       1 <0>        -0.1435
     16 C15         2.4134    0.9379   -4.2618 C.2       1 <0>         0.0909
     17 C16         2.1968    2.2355   -4.0956 C.2       1 <0>        -0.6935
     18 C17         2.5662    3.3832   -5.0212 C.3       1 <0>        -0.0997
     19 C18         1.6884    4.5901   -4.6808 C.3       1 <0>         0.0750
     20 N1          1.4564    4.6601   -3.2276 N.pl3     1 <0>        -1.1090
     21 S1          1.3946    3.0610   -2.7365 S.o2      1 <0>         2.6538
     22 O2          0.0302    2.6637   -2.7425 O.2       1 <0>        -0.9500
     23 O3          2.2403    2.9335   -1.6018 O.2       1 <0>        -0.9549
     24 H1          1.2274    1.8179    0.0883 H         1 <0>         0.0742
     25 H2         -0.3515    1.9341   -0.7253 H         1 <0>         0.0705
     26 H3         -0.2694    1.8521    1.0509 H         1 <0>         0.0630
     27 H4          0.4039   -0.2760    2.1735 H         1 <0>         0.0576
     28 H5          0.8015   -1.7102    1.1971 H         1 <0>         0.0755
     29 H6          1.9007   -0.3102    1.2109 H         1 <0>         0.0535
     30 H7         -1.8945   -0.0310   -0.7446 H         1 <0>         0.0585
     31 H8         -1.4148   -1.5471    0.0552 H         1 <0>         0.0578
     32 H9         -1.8124   -0.1129    1.0316 H         1 <0>         0.0638
     33 H10         1.2305    1.4663   -1.8938 H         1 <0>         0.0986
     34 H11         2.3305   -1.7486   -4.5103 H         1 <0>         0.1414
     35 H12        -0.6751   -2.9546   -0.7811 H         1 <0>         0.3868
     36 H13         3.0890   -3.6081   -4.3192 H         1 <0>         0.0597
     37 H14         2.1030   -5.0672   -4.5779 H         1 <0>         0.0621
     38 H15         1.5117   -3.4833   -5.1345 H         1 <0>         0.0590
     39 H16         1.6936   -4.3483   -0.9484 H         1 <0>         0.0762
     40 H17         2.2093   -5.5723   -2.1333 H         1 <0>         0.0563
     41 H18         3.1953   -4.1131   -1.8747 H         1 <0>         0.0523
     42 H19        -0.5962   -3.8134   -3.8343 H         1 <0>         0.0559
     43 H20        -0.0048   -5.3972   -3.2776 H         1 <0>         0.0630
     44 H21        -0.5204   -4.1732   -2.0927 H         1 <0>         0.0586
     45 H22         3.0065    0.5919   -5.0954 H         1 <0>         0.1420
     46 H23         3.6157    3.6426   -4.8826 H         1 <0>         0.0983
     47 H24         2.3974    3.0877   -6.0567 H         1 <0>         0.1101
     48 H25         2.1858    5.5022   -5.0109 H         1 <0>         0.1043
     49 H26         0.7317    4.4965   -5.1946 H         1 <0>         0.0826
     50 H27         1.3584    5.4546   -2.6797 H         1 <0>         0.4394
@<TRIPOS>BOND
     1    1    2 1
     2    1   24 1
     3    1   25 1
     4    1   26 1
     5    2    3 1
     6    2    4 1
     7    2    5 1
     8    3   27 1
     9    3   28 1
    10    3   29 1
    11    4   30 1
    12    4   31 1
    13    4   32 1
    14    5   10 ar
    15    5    6 ar
    16    6    7 ar
    17    6   33 1
    18    7    8 ar
    19    7   16 1
    20    8    9 ar
    21    8   34 1
    22    9   10 ar
    23    9   12 1
    24   10   11 1
    25   11   35 1
    26   12   13 1
    27   12   14 1
    28   12   15 1
    29   13   36 1
    30   13   37 1
    31   13   38 1
    32   14   39 1
    33   14   40 1
    34   14   41 1
    35   15   42 1
    36   15   43 1
    37   15   44 1
    38   16   17 2
    39   16   45 1
    40   17   21 1
    41   17   18 1
    42   18   19 1
    43   18   46 1
    44   18   47 1
    45   19   20 1
    46   19   48 1
    47   19   49 1
    48   20   21 1
    49   20   50 1
    50   21   22 2
    51   21   23 2
@<TRIPOS>MOLECULE
CHEMBL222480
   65    69     0     0     0
SMALL
USER_CHARGES

@<TRIPOS>ATOM
      1 C1         -0.0884    0.0251   -1.8548 C.3       1 <0>         0.0238
      2 O1         -0.6102   -0.3901   -0.5909 O.3       1 <0>        -0.3118
      3 C2         -1.8793   -0.8772   -0.5770 C.ar      1 <0>         0.1383
      4 C3         -2.6038   -0.9585   -1.7576 C.ar      1 <0>        -0.1929
      5 C4         -3.8927   -1.4530   -1.7441 C.ar      1 <0>        -0.0678
      6 C5         -4.4640   -1.8692   -0.5489 C.ar      1 <0>         0.1015
      7 C6         -3.7384   -1.7876    0.6323 C.ar      1 <0>        -0.0624
      8 C7         -2.4475   -1.2981    0.6167 C.ar      1 <0>        -0.1378
      9 N1         -5.7729   -2.3710   -0.5345 N.pl3     1 <0>        -0.3115
     10 C8         -6.2962   -3.2811   -1.4075 C.2       1 <0>         0.1285
     11 C9         -7.5954   -3.4953   -1.0407 C.2       1 <0>        -0.2213
     12 C10        -7.8619   -2.7002    0.0741 C.2       1 <0>         0.0723
     13 N2         -6.7773   -2.0337    0.3817 N.2       1 <0>        -0.2670
     14 C11        -9.1770   -2.6253    0.8061 C.3       1 <0>         0.1446
     15 O2        -10.1201   -3.4988    0.1820 O.3       1 <0>        -0.2989
     16 C12       -11.3655   -3.5503    0.7233 C.ar      1 <0>         0.1672
     17 C13       -12.3293   -4.3818    0.1708 C.ar      1 <0>        -0.1509
     18 C14       -13.5949   -4.4334    0.7219 C.ar      1 <0>        -0.0439
     19 C15       -13.9031   -3.6574    1.8238 C.ar      1 <0>        -0.1748
     20 C16       -12.9438   -2.8265    2.3778 C.ar      1 <0>         0.1432
     21 C17       -11.6731   -2.7763    1.8320 C.ar      1 <0>        -0.2459
     22 F1        -13.2470   -2.0686    3.4543 F         1 <0>        -0.1328
     23 C18       -14.6412   -5.3364    0.1209 C.3       1 <0>         0.1606
     24 C19       -13.9833   -6.6327   -0.3617 C.3       1 <0>        -0.1837
     25 C20       -15.0387   -7.5094   -1.0408 C.3       1 <0>         0.0647
     26 O3        -15.6325   -6.7869   -2.1213 O.3       1 <0>        -0.3805
     27 C21       -16.3034   -5.5894   -1.7236 C.3       1 <0>         0.0626
     28 C22       -15.2988   -4.6357   -1.0719 C.3       1 <0>        -0.1369
     29 O4        -15.6332   -5.6389    1.1039 O.3       1 <0>        -0.3666
     30 C23       -15.1445   -6.4063    2.2059 C.3       1 <0>         0.0166
     31 C24        -5.5887   -3.9170   -2.5403 C.ar      1 <0>        -0.0410
     32 C25        -4.2014   -4.0619   -2.5073 C.ar      1 <0>        -0.1043
     33 C26        -3.5474   -4.6562   -3.5669 C.ar      1 <0>        -0.1173
     34 C27        -4.2644   -5.1081   -4.6605 C.ar      1 <0>        -0.1062
     35 C28        -5.6401   -4.9670   -4.6995 C.ar      1 <0>        -0.1176
     36 C29        -6.3065   -4.3796   -3.6438 C.ar      1 <0>        -0.0870
     37 H1          0.9298    0.3918   -1.7248 H         1 <0>         0.1044
     38 H2         -0.0850   -0.8209   -2.5420 H         1 <0>         0.0587
     39 H3         -0.7121    0.8211   -2.2616 H         1 <0>         0.0585
     40 H4         -2.1595   -0.6344   -2.6871 H         1 <0>         0.1403
     41 H5         -4.4566   -1.5159   -2.6630 H         1 <0>         0.1336
     42 H6         -4.1823   -2.1107    1.5623 H         1 <0>         0.1404
     43 H7         -1.8814   -1.2390    1.5345 H         1 <0>         0.1433
     44 H8         -8.2921   -4.1613   -1.5278 H         1 <0>         0.1603
     45 H9         -9.0331   -2.9274    1.8435 H         1 <0>         0.0886
     46 H10        -9.5527   -1.6025    0.7744 H         1 <0>         0.0890
     47 H11       -12.0901   -4.9884   -0.6902 H         1 <0>         0.1420
     48 H12       -14.8933   -3.6990    2.2528 H         1 <0>         0.1442
     49 H13       -10.9231   -2.1321    2.2666 H         1 <0>         0.1433
     50 H14       -13.1926   -6.3967   -1.0739 H         1 <0>         0.0901
     51 H15       -13.5604   -7.1656    0.4900 H         1 <0>         0.0841
     52 H16       -14.5676   -8.4145   -1.4242 H         1 <0>         0.0967
     53 H17       -15.8081   -7.7784   -0.3171 H         1 <0>         0.0567
     54 H18       -16.7434   -5.1114   -2.5989 H         1 <0>         0.0977
     55 H19       -17.0894   -5.8334   -1.0089 H         1 <0>         0.0614
     56 H20       -15.8167   -3.7403   -0.7282 H         1 <0>         0.0862
     57 H21       -14.5347   -4.3593   -1.7986 H         1 <0>         0.0898
     58 H22       -14.7029   -7.3319    1.8366 H         1 <0>         0.0486
     59 H23       -14.3891   -5.8319    2.7420 H         1 <0>         0.0484
     60 H24       -15.9688   -6.6405    2.8795 H         1 <0>         0.0902
     61 H25        -3.6406   -3.7092   -1.6544 H         1 <0>         0.1261
     62 H26        -2.4736   -4.7686   -3.5428 H         1 <0>         0.1266
     63 H27        -3.7478   -5.5726   -5.4874 H         1 <0>         0.1267
     64 H28        -6.1940   -5.3211   -5.5563 H         1 <0>         0.1301
     65 H29        -7.3809   -4.2744   -3.6732 H         1 <0>         0.1310
@<TRIPOS>BOND
     1    1    2 1
     2    1   37 1
     3    1   38 1
     4    1   39 1
     5    2    3 1
     6    3    8 ar
     7    3    4 ar
     8    4    5 ar
     9    4   40 1
    10    5    6 ar
    11    5   41 1
    12    6    7 ar
    13    6    9 1
    14    7    8 ar
    15    7   42 1
    16    8   43 1
    17    9   13 1
    18    9   10 1
    19   10   11 2
    20   10   31 1
    21   11   12 1
    22   11   44 1
    23   12   13 2
    24   12   14 1
    25   14   15 1
    26   14   45 1
    27   14   46 1
    28   15   16 1
    29   16   21 ar
    30   16   17 ar
    31   17   18 ar
    32   17   47 1
    33   18   19 ar
    34   18   23 1
    35   19   20 ar
    36   19   48 1
    37   20   21 ar
    38   20   22 1
    39   21   49 1
    40   23   28 1
    41   23   24 1
    42   23   29 1
    43   24   25 1
    44   24   50 1
    45   24   51 1
    46   25   26 1
    47   25   52 1
    48   25   53 1
    49   26   27 1
    50   27   28 1
    51   27   54 1
    52   27   55 1
    53   28   56 1
    54   28   57 1
    55   29   30 1
    56   30   58 1
    57   30   59 1
    58   30   60 1
    59   31   36 ar
    60   31   32 ar
    61   32   33 ar
    62   32   61 1
    63   33   34 ar
    64   33   62 1
    65   34   35 ar
    66   34   63 1
    67   35   36 ar
    68   35   64 1
    69   36   65 1
@<TRIPOS>MOLECULE
CHEMBL62723
   59    61     0     0     0
SMALL
USER_CHARGES

@<TRIPOS>ATOM
      1 C1         -1.4227    1.0099   -1.1326 C.3       1 <0>        -0.1494
      2 C2         -1.2057   -0.5046   -1.1468 C.3       1 <0>        -0.0217
      3 C3         -0.8923   -0.9882    0.2705 C.3       1 <0>        -0.1426
      4 C4         -2.4728   -1.1965   -1.6533 C.3       1 <0>        -0.1431
      5 C5         -0.0527   -0.8383   -2.0580 C.ar      1 <0>        -0.0962
      6 C6          0.6210    0.1701   -2.7133 C.ar      1 <0>        -0.0787
      7 C7          1.6888   -0.1400   -3.5570 C.ar      1 <0>        -0.0999
      8 C8          2.0702   -1.4710   -3.7337 C.ar      1 <0>        -0.1006
      9 C9          1.3915   -2.4739   -3.0748 C.ar      1 <0>        -0.0983
     10 C10         0.3333   -2.1608   -2.2319 C.ar      1 <0>         0.1420
     11 O1         -0.3296   -3.1515   -1.5800 O.3       1 <0>        -0.4841
     12 C11         1.8020   -3.9113   -3.2652 C.3       1 <0>        -0.0212
     13 C12         2.9872   -3.9796   -4.2304 C.3       1 <0>        -0.1515
     14 C13         2.2077   -4.5088   -1.9164 C.3       1 <0>        -0.1429
     15 C14         0.6281   -4.7049   -3.8422 C.3       1 <0>        -0.1435
     16 C15         2.4134    0.9379   -4.2618 C.2       1 <0>         0.0970
     17 C16         3.5387    0.6674   -4.9089 C.2       1 <0>        -0.6934
     18 C17         4.3707   -0.6085   -4.8948 C.3       1 <0>        -0.1082
     19 C18         5.8300   -0.2157   -5.1333 C.3       1 <0>         0.0724
     20 N1          5.9452    0.9137   -6.0646 N.pl3     1 <0>        -0.9287
     21 S1          4.4663    1.6986   -6.0268 S.o2      1 <0>         2.6479
     22 O2          4.6668    2.9500   -5.3841 O.2       1 <0>        -0.9413
     23 O3          3.8785    1.5671   -7.3138 O.2       1 <0>        -0.9371
     24 C19         7.0563    1.2592   -6.8279 C.ar      1 <0>         0.2528
     25 C20         8.3403    0.8836   -6.4334 C.ar      1 <0>        -0.2067
     26 C21         9.4150    1.2454   -7.2180 C.ar      1 <0>         0.1332
     27 N2          9.2397    1.9374   -8.3283 N.ar      1 <0>        -0.5033
     28 C22         8.0412    2.3116   -8.7353 C.ar      1 <0>         0.1420
     29 C23         6.9145    1.9852   -8.0104 C.ar      1 <0>        -0.2335
     30 H1         -0.5200    1.5029   -0.7718 H         1 <0>         0.0597
     31 H2         -1.6460    1.3545   -2.1423 H         1 <0>         0.0591
     32 H3         -2.2566    1.2513   -0.4736 H         1 <0>         0.0623
     33 H4         -1.7263   -0.7468    0.9295 H         1 <0>         0.0564
     34 H5         -0.7378   -2.0671    0.2603 H         1 <0>         0.0751
     35 H6          0.0104   -0.4952    0.6313 H         1 <0>         0.0517
     36 H7         -2.6961   -0.8520   -2.6630 H         1 <0>         0.0553
     37 H8         -2.3183   -2.2755   -1.6634 H         1 <0>         0.0579
     38 H9         -3.3068   -0.9551   -0.9943 H         1 <0>         0.0630
     39 H10         0.3228    1.1988   -2.5744 H         1 <0>         0.1385
     40 H11         2.8957   -1.7150   -4.3860 H         1 <0>         0.1529
     41 H12        -1.0804   -3.5119   -2.0714 H         1 <0>         0.3863
     42 H13         3.8236   -3.4142   -3.8194 H         1 <0>         0.0578
     43 H14         3.2842   -5.0193   -4.3681 H         1 <0>         0.0643
     44 H15         2.6982   -3.5540   -5.1914 H         1 <0>         0.0586
     45 H16         1.3634   -4.4601   -1.2288 H         1 <0>         0.0759
     46 H17         2.5047   -5.5485   -2.0541 H         1 <0>         0.0566
     47 H18         3.0441   -3.9434   -1.5054 H         1 <0>         0.0514
     48 H19         0.3391   -4.2792   -4.8031 H         1 <0>         0.0554
     49 H20         0.9250   -5.7446   -3.9799 H         1 <0>         0.0632
     50 H21        -0.2163   -4.6562   -3.1545 H         1 <0>         0.0583
     51 H22         2.0264    1.9461   -4.2498 H         1 <0>         0.1442
     52 H23         4.2743   -1.1017   -3.9276 H         1 <0>         0.1250
     53 H24         4.0342   -1.2776   -5.6867 H         1 <0>         0.1051
     54 H25         6.2837    0.0608   -4.1816 H         1 <0>         0.0907
     55 H26         6.3657   -1.0714   -5.5445 H         1 <0>         0.1045
     56 H27         8.4908    0.3176   -5.5260 H         1 <0>         0.1403
     57 H28        10.4129    0.9592   -6.9202 H         1 <0>         0.1629
     58 H29         7.9413    2.8771   -9.6500 H         1 <0>         0.1657
     59 H30         5.9363    2.2906   -8.3515 H         1 <0>         0.1403
@<TRIPOS>BOND
     1    1    2 1
     2    1   30 1
     3    1   31 1
     4    1   32 1
     5    2    3 1
     6    2    4 1
     7    2    5 1
     8    3   33 1
     9    3   34 1
    10    3   35 1
    11    4   36 1
    12    4   37 1
    13    4   38 1
    14    5   10 ar
    15    5    6 ar
    16    6    7 ar
    17    6   39 1
    18    7    8 ar
    19    7   16 1
    20    8    9 ar
    21    8   40 1
    22    9   10 ar
    23    9   12 1
    24   10   11 1
    25   11   41 1
    26   12   13 1
    27   12   14 1
    28   12   15 1
    29   13   42 1
    30   13   43 1
    31   13   44 1
    32   14   45 1
    33   14   46 1
    34   14   47 1
    35   15   48 1
    36   15   49 1
    37   15   50 1
    38   16   17 2
    39   16   51 1
    40   17   21 1
    41   17   18 1
    42   18   19 1
    43   18   52 1
    44   18   53 1
    45   19   20 1
    46   19   54 1
    47   19   55 1
    48   20   21 1
    49   20   24 1
    50   21   22 2
    51   21   23 2
    52   24   29 ar
    53   24   25 ar
    54   25   26 ar
    55   25   56 1
    56   26   27 ar
    57   26   57 1
    58   27   28 ar
    59   28   29 ar
    60   28   58 1
    61   29   59 1
@<TRIPOS>MOLECULE
CHEMBL268501
   39    41     0     0     0
SMALL
USER_CHARGES

@<TRIPOS>ATOM
      1 C1          2.5415    0.9082    0.3304 C.3       1 <0>        -0.1251
      2 C2          1.8843   -0.4449    0.2396 C.ar      1 <0>        -0.0060
      3 C3          1.9043   -1.1387   -0.9627 C.ar      1 <0>        -0.1565
      4 C4          1.3148   -2.3679   -1.0683 C.ar      1 <0>        -0.0348
      5 C5          0.6875   -2.9287    0.0449 C.ar      1 <0>        -0.1932
      6 C6          0.6652   -2.2277    1.2665 C.ar      1 <0>         0.2154
      7 C7          1.2742   -0.9833    1.3535 C.ar      1 <0>        -0.1765
      8 N1          0.0367   -2.8102    2.3494 N.am      1 <0>        -0.5357
      9 C8         -0.5374   -4.0206    2.2284 C.2       1 <0>         0.6483
     10 O1         -1.0833   -4.5064    3.2037 O.2       1 <0>        -0.5122
     11 N2         -0.5359   -4.7124    1.0879 N.2       1 <0>        -0.5349
     12 C9          0.0386   -4.2458   -0.0101 C.2       1 <0>         0.3421
     13 C10         0.0269   -5.0314   -1.2621 C.ar      1 <0>        -0.0752
     14 C11         1.1611   -5.0712   -2.0758 C.ar      1 <0>        -0.0896
     15 C12         1.1433   -5.8063   -3.2428 C.ar      1 <0>        -0.1234
     16 C13         0.0048   -6.5029   -3.6081 C.ar      1 <0>        -0.0924
     17 C14        -1.1226   -6.4678   -2.8065 C.ar      1 <0>        -0.1232
     18 C15        -1.1165   -5.7418   -1.6337 C.ar      1 <0>        -0.0619
     19 C16        -0.0044   -2.1078    3.6344 C.3       1 <0>         0.1283
     20 C17        -1.4605   -1.8983    4.0547 C.3       1 <0>        -0.1711
     21 C18         0.7175   -2.9417    4.6948 C.3       1 <0>        -0.1696
     22 H1          3.5851    0.7864    0.6206 H         1 <0>         0.0820
     23 H2          2.4894    1.4032   -0.6392 H         1 <0>         0.0765
     24 H3          2.0254    1.5135    1.0757 H         1 <0>         0.0731
     25 H4          2.3899   -0.7030   -1.8234 H         1 <0>         0.1362
     26 H5          1.3344   -2.9012   -2.0072 H         1 <0>         0.1473
     27 H6          1.2671   -0.4387    2.2860 H         1 <0>         0.1407
     28 H7          2.0500   -4.5274   -1.7922 H         1 <0>         0.1338
     29 H8          2.0198   -5.8379   -3.8730 H         1 <0>         0.1326
     30 H9         -0.0040   -7.0763   -4.5233 H         1 <0>         0.1295
     31 H10        -2.0080   -7.0135   -3.0977 H         1 <0>         0.1320
     32 H11        -1.9956   -5.7189   -1.0068 H         1 <0>         0.1335
     33 H12         0.4881   -1.1404    3.5356 H         1 <0>         0.0990
     34 H13        -1.9530   -2.8657    4.1535 H         1 <0>         0.0861
     35 H14        -1.4911   -1.3757    5.0107 H         1 <0>         0.0749
     36 H15        -1.9749   -1.3042    3.2992 H         1 <0>         0.0555
     37 H16         1.7549   -3.0910    4.3953 H         1 <0>         0.0558
     38 H17         0.6869   -2.4191    5.6508 H         1 <0>         0.0754
     39 H18         0.2251   -3.9091    4.7935 H         1 <0>         0.0830
@<TRIPOS>BOND
     1    1    2 1
     2    1   22 1
     3    1   23 1
     4    1   24 1
     5    2    7 ar
     6    2    3 ar
     7    3    4 ar
     8    3   25 1
     9    4    5 ar
    10    4   26 1
    11    5   12 1
    12    5    6 ar
    13    6    7 ar
    14    6    8 1
    15    7   27 1
    16    8    9 am
    17    8   19 1
    18    9   10 2
    19    9   11 1
    20   11   12 2
    21   12   13 1
    22   13   18 ar
    23   13   14 ar
    24   14   15 ar
    25   14   28 1
    26   15   16 ar
    27   15   29 1
    28   16   17 ar
    29   16   30 1
    30   17   18 ar
    31   17   31 1
    32   18   32 1
    33   19   20 1
    34   19   21 1
    35   19   33 1
    36   20   34 1
    37   20   35 1
    38   20   36 1
    39   21   37 1
    40   21   38 1
    41   21   39 1
@<TRIPOS>MOLECULE
CHEMBL98903
   39    41     0     0     0
SMALL
USER_CHARGES

@<TRIPOS>ATOM
      1 C1         -0.0173    1.4248    0.0099 C.3       1 <0>         0.0258
      2 O1          0.0021   -0.0041    0.0020 O.3       1 <0>        -0.3166
      3 C2         -1.2004   -0.6376    0.0101 C.ar      1 <0>         0.1335
      4 C3         -2.3738    0.1040    0.0196 C.ar      1 <0>        -0.2067
      5 C4         -3.5957   -0.5359    0.0278 C.ar      1 <0>        -0.0645
      6 C5         -3.6515   -1.9287    0.0266 C.ar      1 <0>        -0.0726
      7 C6         -2.4713   -2.6705    0.0171 C.ar      1 <0>        -0.0572
      8 C7         -1.2526   -2.0246    0.0031 C.ar      1 <0>        -0.1505
      9 C8         -4.9636   -2.6199    0.0359 C.2       1 <0>        -0.0646
     10 C9         -5.9312   -2.2820    0.9336 C.2       1 <0>        -0.1631
     11 S1         -7.2618   -3.3917    0.5136 S.3       1 <0>         0.0604
     12 C10        -6.4862   -4.2616   -0.8355 C.2       1 <0>        -0.1525
     13 C11        -5.2608   -3.6693   -0.9097 C.2       1 <0>        -0.0906
     14 C12        -4.2650   -4.0925   -1.9235 C.ar      1 <0>         0.0299
     15 C13        -3.6247   -3.1404   -2.7151 C.ar      1 <0>        -0.1159
     16 C14        -2.6983   -3.5400   -3.6568 C.ar      1 <0>        -0.0201
     17 C15        -2.4048   -4.8824   -3.8159 C.ar      1 <0>        -0.6595
     18 C16        -3.0375   -5.8317   -3.0334 C.ar      1 <0>        -0.0209
     19 C17        -3.9613   -5.4434   -2.0847 C.ar      1 <0>        -0.1309
     20 S2         -1.2210   -5.3852   -5.0202 S.o2      1 <0>         2.4983
     21 O2         -1.5900   -6.7151   -5.3583 O.2       1 <0>        -0.9376
     22 O3         -1.2413   -4.3563   -6.0002 O.2       1 <0>        -0.9373
     23 C18         0.3669   -5.3812   -4.1430 C.3       1 <0>        -0.6505
     24 H1          1.0053    1.8021    0.0021 H         1 <0>         0.1021
     25 H2         -0.5445    1.7859   -0.8732 H         1 <0>         0.0571
     26 H3         -0.5275    1.7763    0.9067 H         1 <0>         0.0567
     27 H4         -2.3299    1.1831    0.0208 H         1 <0>         0.1312
     28 H5         -4.5083    0.0417    0.0355 H         1 <0>         0.1271
     29 H6         -2.5111   -3.7498    0.0161 H         1 <0>         0.1273
     30 H7         -0.3379   -2.5987   -0.0090 H         1 <0>         0.1321
     31 H8         -5.8998   -1.5294    1.7075 H         1 <0>         0.1895
     32 H9         -6.8887   -5.0571   -1.4450 H         1 <0>         0.1908
     33 H10        -3.8533   -2.0921   -2.5920 H         1 <0>         0.1317
     34 H11        -2.2018   -2.8033   -4.2709 H         1 <0>         0.1424
     35 H12        -2.8049   -6.8784   -3.1625 H         1 <0>         0.1443
     36 H13        -4.4514   -6.1850   -1.4713 H         1 <0>         0.1345
     37 H14         0.3216   -6.0786   -3.3065 H         1 <0>         0.1318
     38 H15         1.1602   -5.6844   -4.8263 H         1 <0>         0.1334
     39 H16         0.5730   -4.3783   -3.7692 H         1 <0>         0.1320
@<TRIPOS>BOND
     1    1    2 1
     2    1   24 1
     3    1   25 1
     4    1   26 1
     5    2    3 1
     6    3    8 ar
     7    3    4 ar
     8    4    5 ar
     9    4   27 1
    10    5    6 ar
    11    5   28 1
    12    6    7 ar
    13    6    9 1
    14    7    8 ar
    15    7   29 1
    16    8   30 1
    17    9   13 1
    18    9   10 2
    19   10   11 1
    20   10   31 1
    21   11   12 1
    22   12   13 2
    23   12   32 1
    24   13   14 1
    25   14   19 ar
    26   14   15 ar
    27   15   16 ar
    28   15   33 1
    29   16   17 ar
    30   16   34 1
    31   17   18 ar
    32   17   20 1
    33   18   19 ar
    34   18   35 1
    35   19   36 1
    36   20   21 2
    37   20   22 2
    38   20   23 1
    39   23   37 1
    40   23   38 1
    41   23   39 1
@<TRIPOS>MOLECULE
CHEMBL56563
   35    36     0     0     0
SMALL
USER_CHARGES

@<TRIPOS>ATOM
      1 C1         -0.0184    1.5028    0.0103 C.3       1 <0>        -0.1098
      2 C2          0.0021   -0.0041    0.0020 C.ar      1 <0>        -0.1030
      3 C3          0.0057   -0.6888   -1.1978 C.ar      1 <0>        -0.1092
      4 C4          0.0244   -2.0713   -1.2061 C.ar      1 <0>        -0.0825
      5 C5          0.0395   -2.7720   -0.0142 C.ar      1 <0>        -0.1092
      6 C6          0.0359   -2.0919    1.1883 C.ar      1 <0>        -0.1031
      7 C7          0.0230   -0.7047    1.1992 C.ar      1 <0>         0.0958
      8 O1          0.0255   -0.0333    2.3808 O.3       1 <0>        -0.4922
      9 C8          0.0523   -2.8562    2.4870 C.3       1 <0>        -0.1097
     10 C9          0.0279   -2.8157   -2.5164 C.3       1 <0>        -0.0738
     11 C10         1.4714   -3.0481   -2.9671 C.3       1 <0>        -0.0743
     12 C11         1.4748   -3.7925   -4.2774 C.ar      1 <0>        -0.0930
     13 C12         1.4878   -5.1749   -4.2864 C.ar      1 <0>        -0.0876
     14 C13         1.4905   -5.8586   -5.4874 C.ar      1 <0>        -0.1511
     15 C14         1.4803   -5.1586   -6.6819 C.ar      1 <0>         0.0934
     16 C15         1.4673   -3.7741   -6.6717 C.ar      1 <0>        -0.1511
     17 C16         1.4593   -3.0926   -5.4695 C.ar      1 <0>        -0.0876
     18 F1          1.4834   -5.8260   -7.8566 F         1 <0>        -0.1401
     19 H1          1.0042    1.8801    0.0026 H         1 <0>         0.0723
     20 H2         -0.5455    1.8639   -0.8728 H         1 <0>         0.0660
     21 H3         -0.5286    1.8543    0.9071 H         1 <0>         0.0673
     22 H4         -0.0064   -0.1438   -2.1301 H         1 <0>         0.1253
     23 H5          0.0538   -3.8518   -0.0233 H         1 <0>         0.1253
     24 H6         -0.8570    0.1493    2.7313 H         1 <0>         0.3857
     25 H7          1.0838   -3.0266    2.7953 H         1 <0>         0.0723
     26 H8         -0.4658   -2.2805    3.2539 H         1 <0>         0.0672
     27 H9         -0.4492   -3.8144    2.3510 H         1 <0>         0.0660
     28 H10        -0.4723   -3.7759   -2.3901 H         1 <0>         0.0754
     29 H11        -0.4978   -2.2284   -3.2693 H         1 <0>         0.0754
     30 H12         1.9716   -2.0879   -3.0934 H         1 <0>         0.0768
     31 H13         1.9971   -3.6354   -2.2142 H         1 <0>         0.0768
     32 H14         1.4961   -5.7207   -3.3545 H         1 <0>         0.1326
     33 H15         1.5009   -6.9385   -5.4941 H         1 <0>         0.1356
     34 H16         1.4597   -3.2270   -7.6029 H         1 <0>         0.1356
     35 H17         1.4447   -2.0127   -5.4612 H         1 <0>         0.1325
@<TRIPOS>BOND
     1    1    2 1
     2    1   19 1
     3    1   20 1
     4    1   21 1
     5    2    7 ar
     6    2    3 ar
     7    3    4 ar
     8    3   22 1
     9    4    5 ar
    10    4   10 1
    11    5    6 ar
    12    5   23 1
    13    6    7 ar
    14    6    9 1
    15    7    8 1
    16    8   24 1
    17    9   25 1
    18    9   26 1
    19    9   27 1
    20   10   11 1
    21   10   28 1
    22   10   29 1
    23   11   12 1
    24   11   30 1
    25   11   31 1
    26   12   17 ar
    27   12   13 ar
    28   13   14 ar
    29   13   32 1
    30   14   15 ar
    31   14   33 1
    32   15   16 ar
    33   15   18 1
    34   16   17 ar
    35   16   34 1
    36   17   35 1
@<TRIPOS>MOLECULE
CHEMBL110824
   42    44     0     0     0
SMALL
USER_CHARGES

@<TRIPOS>ATOM
      1 C1         -0.0814    0.9445    0.8416 C.3       1 <0>        -0.1545
      2 C2          0.0622   -0.5172    0.4130 C.3       1 <0>         0.1352
      3 C3          0.7950   -0.6009   -0.9055 C.2       1 <0>        -0.0460
      4 C4          1.9190   -1.3193   -0.6763 C.2       1 <0>        -0.0032
      5 C5          1.9480   -1.7062    0.7360 C.2       1 <0>         0.5024
      6 O1          2.8282   -2.3589    1.2630 O.2       1 <0>        -0.4280
      7 O2          0.8567   -1.2317    1.3643 O.3       1 <0>        -0.2936
      8 O3          2.8636   -1.6302   -1.6028 O.3       1 <0>        -0.1930
      9 C6          4.1040   -1.1019   -1.4500 C.ar      1 <0>         0.3284
     10 C7          5.1255   -1.4822   -2.3134 C.ar      1 <0>        -0.0879
     11 C8          6.3867   -0.9356   -2.1466 C.ar      1 <0>        -0.0226
     12 C9          6.5822   -0.0237   -1.1170 C.ar      1 <0>        -0.1084
     13 C10         5.5207    0.3076   -0.2971 C.ar      1 <0>         0.1641
     14 N1          4.3285   -0.2264   -0.4847 N.ar      1 <0>        -0.4984
     15 Cl1         8.1436    0.6914   -0.8629 Cl        1 <0>        -0.0297
     16 Cl2         4.8238   -2.6271   -3.5830 Cl        1 <0>        -0.0203
     17 C11         0.3700   -0.0167   -2.1873 C.ar      1 <0>         0.0073
     18 C12         0.3245    1.3721   -2.3461 C.ar      1 <0>        -0.1162
     19 C13        -0.0749    1.9119   -3.5504 C.ar      1 <0>        -0.0207
     20 C14        -0.4307    1.0832   -4.6003 C.ar      1 <0>        -0.6502
     21 C15        -0.3883   -0.2921   -4.4510 C.ar      1 <0>        -0.0176
     22 C16         0.0149   -0.8473   -3.2550 C.ar      1 <0>        -0.1073
     23 S1         -0.9408    1.7828   -6.1349 S.o2      1 <0>         2.4977
     24 O4         -1.6948    0.7580   -6.7678 O.2       1 <0>        -0.9333
     25 O5         -1.5486    3.0189   -5.7856 O.2       1 <0>        -0.9330
     26 C17         0.5990    2.0794   -7.0468 C.3       1 <0>        -0.6500
     27 C18        -1.3181   -1.1655    0.2896 C.3       1 <0>        -0.1536
     28 H1          0.9066    1.3970    0.9265 H         1 <0>         0.0744
     29 H2         -0.6661    1.4856    0.0976 H         1 <0>         0.0889
     30 H3         -0.5871    0.9924    1.8060 H         1 <0>         0.0891
     31 H4          7.1997   -1.2121   -2.8015 H         1 <0>         0.1686
     32 H5          5.6674    1.0158    0.5050 H         1 <0>         0.1813
     33 H6          0.6012    2.0201   -1.5275 H         1 <0>         0.1405
     34 H7         -0.1105    2.9841   -3.6747 H         1 <0>         0.1492
     35 H8         -0.6678   -0.9321   -5.2749 H         1 <0>         0.1520
     36 H9          0.0517   -1.9207   -3.1415 H         1 <0>         0.1401
     37 H10         1.0863    1.1272   -7.2565 H         1 <0>         0.1331
     38 H11         0.3738    2.5867   -7.9849 H         1 <0>         0.1357
     39 H12         1.2623    2.7026   -6.4469 H         1 <0>         0.1318
     40 H13        -1.9014   -0.6374   -0.4647 H         1 <0>         0.0882
     41 H14        -1.2045   -2.2090   -0.0038 H         1 <0>         0.0723
     42 H15        -1.8319   -1.1118    1.2494 H         1 <0>         0.0872
@<TRIPOS>BOND
     1    1    2 1
     2    1   28 1
     3    1   29 1
     4    1   30 1
     5    2    7 1
     6    2    3 1
     7    2   27 1
     8    3    4 2
     9    3   17 1
    10    4    5 1
    11    4    8 1
    12    5    6 2
    13    5    7 1
    14    8    9 1
    15    9   14 ar
    16    9   10 ar
    17   10   11 ar
    18   10   16 1
    19   11   12 ar
    20   11   31 1
    21   12   13 ar
    22   12   15 1
    23   13   14 ar
    24   13   32 1
    25   17   22 ar
    26   17   18 ar
    27   18   19 ar
    28   18   33 1
    29   19   20 ar
    30   19   34 1
    31   20   21 ar
    32   20   23 1
    33   21   22 ar
    34   21   35 1
    35   22   36 1
    36   23   24 2
    37   23   25 2
    38   23   26 1
    39   26   37 1
    40   26   38 1
    41   26   39 1
    42   27   40 1
    43   27   41 1
    44   27   42 1
@<TRIPOS>MOLECULE
CHEMBL512578
   28    30     0     0     0
SMALL
USER_CHARGES

@<TRIPOS>ATOM
      1 C1         -0.0169    1.3914    0.0097 C.ar      1 <0>        -0.0499
      2 C2          1.1599    2.0863    0.0022 C.ar      1 <0>        -0.1565
      3 C3          2.3763    1.4100   -0.0131 C.ar      1 <0>         0.1382
      4 C4          2.4130    0.0265   -0.0213 C.ar      1 <0>        -0.1375
      5 C5          1.2272   -0.6952   -0.0138 C.ar      1 <0>         0.0764
      6 C6          0.0021   -0.0041    0.0020 C.ar      1 <0>        -0.1395
      7 C7         -1.0353   -1.0387    0.0064 C.2       1 <0>        -0.1748
      8 C8         -0.3827   -2.2250   -0.0062 C.2       1 <0>         0.0716
      9 O1          0.9489   -2.0147   -0.0186 O.3       1 <0>        -0.1856
     10 C9         -1.0331   -3.5522   -0.0072 C.ar      1 <0>         0.0086
     11 C10        -2.4251   -3.6492   -0.0003 C.ar      1 <0>        -0.1305
     12 C11        -3.0305   -4.8949   -0.0017 C.ar      1 <0>         0.1302
     13 C12        -2.2549   -6.0453   -0.0099 C.ar      1 <0>        -0.1616
     14 C13        -0.8705   -5.9534   -0.0168 C.ar      1 <0>         0.1292
     15 C14        -0.2570   -4.7117   -0.0208 C.ar      1 <0>        -0.1331
     16 O2         -0.1154   -7.0833   -0.0244 O.3       1 <0>        -0.4930
     17 O3         -4.3861   -4.9905    0.0054 O.3       1 <0>        -0.4919
     18 O4          3.5386    2.1145   -0.0204 O.3       1 <0>        -0.4918
     19 H1         -0.9583    1.9203    0.0260 H         1 <0>         0.1363
     20 H2          1.1459    3.1662    0.0078 H         1 <0>         0.1389
     21 H3          3.3613   -0.4901   -0.0338 H         1 <0>         0.1405
     22 H4         -2.1044   -0.8860    0.0177 H         1 <0>         0.1642
     23 H5         -3.0295   -2.7542    0.0065 H         1 <0>         0.1407
     24 H6         -2.7302   -7.0151   -0.0106 H         1 <0>         0.1414
     25 H7          0.8207   -4.6410   -0.0306 H         1 <0>         0.1402
     26 H8          0.0985   -7.4075   -0.9099 H         1 <0>         0.3963
     27 H9         -4.7834   -5.0148   -0.8759 H         1 <0>         0.3965
     28 H10         3.8833    2.3136    0.8608 H         1 <0>         0.3964
@<TRIPOS>BOND
     1    1    6 ar
     2    1    2 ar
     3    1   19 1
     4    2    3 ar
     5    2   20 1
     6    3    4 ar
     7    3   18 1
     8    4    5 ar
     9    4   21 1
    10    5    9 1
    11    5    6 ar
    12    6    7 1
    13    7    8 2
    14    7   22 1
    15    8    9 1
    16    8   10 1
    17   10   15 ar
    18   10   11 ar
    19   11   12 ar
    20   11   23 1
    21   12   13 ar
    22   12   17 1
    23   13   14 ar
    24   13   24 1
    25   14   15 ar
    26   14   16 1
    27   15   25 1
    28   16   26 1
    29   17   27 1
    30   18   28 1
@<TRIPOS>MOLECULE
CHEMBL143776
   41    45     0     0     0
SMALL
USER_CHARGES

@<TRIPOS>ATOM
      1 C1         -0.0169    1.3920    0.0097 C.ar      1 <0>        -0.0850
      2 C2          1.1695    2.0951    0.0021 C.ar      1 <0>        -0.1494
      3 C3          2.3789    1.4186   -0.0135 C.ar      1 <0>         0.1011
      4 C4          2.4037    0.0330   -0.0216 C.ar      1 <0>        -0.1486
      5 C5          1.2234   -0.6804   -0.0142 C.ar      1 <0>        -0.0665
      6 C6          0.0021   -0.0041    0.0020 C.ar      1 <0>        -0.0296
      7 C7         -1.2658   -0.7630    0.0105 C.2       1 <0>         0.0844
      8 C8         -1.5439   -1.8384    0.7877 C.2       1 <0>        -0.1585
      9 C9         -2.8536   -2.2560    0.4853 C.2       1 <0>        -0.1585
     10 C10        -3.3399   -1.4246   -0.4687 C.2       1 <0>         0.0845
     11 N1         -2.3696   -0.4974   -0.7636 N.pl3     1 <0>        -0.5512
     12 H1         -2.4495    0.2214   -1.4100 H         1 <0>         0.4181
     13 C11        -4.6826   -1.4991   -1.0812 C.ar      1 <0>        -0.0296
     14 C12        -5.2001   -2.7306   -1.4873 C.ar      1 <0>        -0.0665
     15 C13        -6.4541   -2.7942   -2.0579 C.ar      1 <0>        -0.1486
     16 C14        -7.2001   -1.6388   -2.2284 C.ar      1 <0>         0.1010
     17 C15        -6.6913   -0.4137   -1.8275 C.ar      1 <0>        -0.1494
     18 C16        -5.4409   -0.3390   -1.2505 C.ar      1 <0>        -0.0851
     19 F1         -8.4279   -1.7070   -2.7879 F         1 <0>        -0.1374
     20 C17        -3.1545   -3.4673    1.3676 C.3       1 <0>        -0.0213
     21 C18        -3.2670   -2.8779    2.8093 C.3       1 <0>        -0.1162
     22 C19        -1.8270   -2.4189    3.1417 C.3       1 <0>        -0.1170
     23 C20        -1.0076   -2.7828    1.8632 C.3       1 <0>        -0.0214
     24 C21        -1.7242   -4.1176    1.4403 C.3       1 <0>        -0.1167
     25 F2          3.5381    2.1124   -0.0213 F         1 <0>        -0.1374
     26 H2         -0.9587    1.9202    0.0260 H         1 <0>         0.1299
     27 H3          1.1561    3.1750    0.0081 H         1 <0>         0.1383
     28 H4          3.3490   -0.4891   -0.0342 H         1 <0>         0.1404
     29 H5          1.2439   -1.7602   -0.0213 H         1 <0>         0.1378
     30 H6         -4.6194   -3.6315   -1.3553 H         1 <0>         0.1378
     31 H7         -6.8552   -3.7462   -2.3728 H         1 <0>         0.1404
     32 H8         -7.2768    0.4836   -1.9631 H         1 <0>         0.1383
     33 H9         -5.0472    0.6156   -0.9340 H         1 <0>         0.1298
     34 H10        -3.9670   -4.1139    1.0360 H         1 <0>         0.0979
     35 H11        -3.9509   -2.0294    2.8227 H         1 <0>         0.0638
     36 H12        -3.5948   -3.6450    3.5109 H         1 <0>         0.0684
     37 H13        -1.8004   -1.3438    3.3192 H         1 <0>         0.0638
     38 H14        -1.4442   -2.9594    4.0073 H         1 <0>         0.0685
     39 H15         0.0757   -2.8141    1.9792 H         1 <0>         0.0978
     40 H16        -1.6571   -4.8859    2.2106 H         1 <0>         0.0790
     41 H17        -1.3845   -4.4809    0.4704 H         1 <0>         0.0731
@<TRIPOS>BOND
     1    1    6 ar
     2    1    2 ar
     3    1   26 1
     4    2    3 ar
     5    2   27 1
     6    3    4 ar
     7    3   25 1
     8    4    5 ar
     9    4   28 1
    10    5    6 ar
    11    5   29 1
    12    6    7 1
    13    7   11 1
    14    7    8 2
    15    8   23 1
    16    8    9 1
    17    9   10 2
    18    9   20 1
    19   10   11 1
    20   10   13 1
    21   11   12 1
    22   13   18 ar
    23   13   14 ar
    24   14   15 ar
    25   14   30 1
    26   15   16 ar
    27   15   31 1
    28   16   17 ar
    29   16   19 1
    30   17   18 ar
    31   17   32 1
    32   18   33 1
    33   20   24 1
    34   20   21 1
    35   20   34 1
    36   21   22 1
    37   21   35 1
    38   21   36 1
    39   22   23 1
    40   22   37 1
    41   22   38 1
    42   23   24 1
    43   23   39 1
    44   24   40 1
    45   24   41 1
@<TRIPOS>MOLECULE
CHEMBL302441
   54    55     0     0     0
SMALL
USER_CHARGES

@<TRIPOS>ATOM
      1 C1         -0.2136    0.9907   -0.0656 C.3       1 <0>        -0.1488
      2 C2         -0.3436   -0.5044   -0.3630 C.3       1 <0>        -0.0213
      3 C3          0.2629   -1.3082    0.7889 C.3       1 <0>        -0.1423
      4 C4         -1.8221   -0.8675   -0.5153 C.3       1 <0>        -0.1429
      5 C5          0.3872   -0.8278   -1.6407 C.ar      1 <0>        -0.0947
      6 C6          1.0382    0.1708   -2.3330 C.ar      1 <0>        -0.0834
      7 C7          1.7147   -0.1297   -3.5163 C.ar      1 <0>        -0.0963
      8 C8          1.7293   -1.4412   -3.9939 C.ar      1 <0>        -0.0877
      9 C9          1.0760   -2.4343   -3.2958 C.ar      1 <0>        -0.0968
     10 C10         0.4087   -2.1323   -2.1160 C.ar      1 <0>         0.1372
     11 O1         -0.2293   -3.1148   -1.4279 O.3       1 <0>        -0.4842
     12 C11         1.0906   -3.8505   -3.8108 C.3       1 <0>        -0.0212
     13 C12         1.8928   -3.9116   -5.1122 C.3       1 <0>        -0.1505
     14 C13         1.7381   -4.7652   -2.7692 C.3       1 <0>        -0.1422
     15 C14        -0.3441   -4.3124   -4.0738 C.3       1 <0>        -0.1429
     16 C15         2.4134    0.9379   -4.2618 C.2       1 <0>         0.0635
     17 C16         3.5387    0.6674   -4.9089 C.2       1 <0>        -0.6933
     18 C17         4.2453   -0.6732   -4.7781 C.3       1 <0>        -0.1062
     19 C18         5.7177   -0.4148   -4.4528 C.3       1 <0>         0.0087
     20 O2          6.3734    0.2719   -5.5161 O.3       1 <0>        -0.1218
     21 N1          5.9488    1.6227   -5.6908 N.pl3     1 <0>        -0.8643
     22 S1          4.3146    1.8456   -5.9911 S.o2      1 <0>         2.6696
     23 O3          4.0666    1.4192   -7.3237 O.2       1 <0>        -0.9276
     24 O4          3.9734    3.1407   -5.5162 O.2       1 <0>        -0.9409
     25 C19         6.8861    2.7461   -5.6159 C.3       1 <0>         0.0965
     26 H1          0.8397    1.2494    0.0429 H         1 <0>         0.0589
     27 H2         -0.6457    1.5634   -0.8862 H         1 <0>         0.0590
     28 H3         -0.7422    1.2246    0.8586 H         1 <0>         0.0618
     29 H4         -0.2657   -1.0743    1.7130 H         1 <0>         0.0560
     30 H5          0.1703   -2.3734    0.5770 H         1 <0>         0.0752
     31 H6          1.3162   -1.0496    0.8973 H         1 <0>         0.0510
     32 H7         -2.2542   -0.2948   -1.3359 H         1 <0>         0.0552
     33 H8         -1.9147   -1.9327   -0.7272 H         1 <0>         0.0581
     34 H9         -2.3507   -0.6336    0.4089 H         1 <0>         0.0625
     35 H10         1.0243    1.1845   -1.9606 H         1 <0>         0.1371
     36 H11         2.2514   -1.6775   -4.9092 H         1 <0>         0.1423
     37 H12        -1.1513   -3.2434   -1.6899 H         1 <0>         0.3855
     38 H13         2.9149   -3.5825   -4.9249 H         1 <0>         0.0584
     39 H14         1.9034   -4.9360   -5.4847 H         1 <0>         0.0631
     40 H15         1.4315   -3.2599   -5.8543 H         1 <0>         0.0593
     41 H16         1.1666   -4.7217   -1.8420 H         1 <0>         0.0755
     42 H17         1.7487   -5.7895   -3.1417 H         1 <0>         0.0563
     43 H18         2.7602   -4.4361   -2.5818 H         1 <0>         0.0509
     44 H19        -0.8053   -3.6607   -4.8158 H         1 <0>         0.0552
     45 H20        -0.3335   -5.3367   -4.4463 H         1 <0>         0.0629
     46 H21        -0.9155   -4.2688   -3.1466 H         1 <0>         0.0579
     47 H22         2.0075    1.9386   -4.2796 H         1 <0>         0.1445
     48 H23         3.7886   -1.2512   -3.9747 H         1 <0>         0.1069
     49 H24         4.1683   -1.2211   -5.7172 H         1 <0>         0.0953
     50 H25         5.7822    0.1872   -3.5464 H         1 <0>         0.0750
     51 H26         6.2178   -1.3682   -4.2823 H         1 <0>         0.1287
     52 H27         7.8893    2.3697   -5.4161 H         1 <0>         0.0958
     53 H28         6.8825    3.2861   -6.5628 H         1 <0>         0.0730
     54 H29         6.5838    3.4186   -4.8131 H         1 <0>         0.0723
@<TRIPOS>BOND
     1    1    2 1
     2    1   26 1
     3    1   27 1
     4    1   28 1
     5    2    3 1
     6    2    4 1
     7    2    5 1
     8    3   29 1
     9    3   30 1
    10    3   31 1
    11    4   32 1
    12    4   33 1
    13    4   34 1
    14    5   10 ar
    15    5    6 ar
    16    6    7 ar
    17    6   35 1
    18    7    8 ar
    19    7   16 1
    20    8    9 ar
    21    8   36 1
    22    9   10 ar
    23    9   12 1
    24   10   11 1
    25   11   37 1
    26   12   13 1
    27   12   14 1
    28   12   15 1
    29   13   38 1
    30   13   39 1
    31   13   40 1
    32   14   41 1
    33   14   42 1
    34   14   43 1
    35   15   44 1
    36   15   45 1
    37   15   46 1
    38   16   17 2
    39   16   47 1
    40   17   22 1
    41   17   18 1
    42   18   19 1
    43   18   48 1
    44   18   49 1
    45   19   20 1
    46   19   50 1
    47   19   51 1
    48   20   21 1
    49   21   22 1
    50   21   25 1
    51   22   23 2
    52   22   24 2
    53   25   52 1
    54   25   53 1
    55   25   54 1
@<TRIPOS>MOLECULE
CHEMBL266100
   48    49     0     0     0
SMALL
USER_CHARGES

@<TRIPOS>ATOM
      1 C1         -0.0187    1.5258    0.0104 C.3       1 <0>        -0.1474
      2 C2          0.0021   -0.0041    0.0020 C.3       1 <0>        -0.0212
      3 C3          0.7421   -0.5109    1.2415 C.3       1 <0>        -0.1419
      4 C4         -1.4333   -0.5336    0.0129 C.3       1 <0>        -0.1423
      5 C5          0.7074   -0.4901   -1.2379 C.ar      1 <0>        -0.0901
      6 C6          1.2148    0.4184   -2.1413 C.ar      1 <0>        -0.0970
      7 C7          1.8691   -0.0339   -3.2914 C.ar      1 <0>        -0.0619
      8 C8          2.0050   -1.4070   -3.5185 C.ar      1 <0>        -0.1034
      9 C9          1.4942   -2.3072   -2.6088 C.ar      1 <0>        -0.0897
     10 C10         0.8501   -1.8528   -1.4652 C.ar      1 <0>         0.1208
     11 O1          0.3530   -2.7445   -0.5685 O.3       1 <0>        -0.4851
     12 C11         1.6399   -3.7873   -2.8522 C.3       1 <0>        -0.0212
     13 C12         2.3868   -4.0167   -4.1677 C.3       1 <0>        -0.1478
     14 C13         2.4273   -4.4182   -1.7020 C.3       1 <0>        -0.1422
     15 C14         0.2537   -4.4296   -2.9340 C.3       1 <0>        -0.1422
     16 C15         2.4126    0.9324   -4.2603 C.2       1 <0>        -0.0911
     17 C16         3.0424    0.4943   -5.3673 C.2       1 <0>        -0.0714
     18 C17         3.5835    1.4562   -6.3319 C.2       1 <0>        -0.1184
     19 C18         4.2521    1.2183   -7.5208 C.2       1 <0>        -0.1510
     20 C19         4.6685    2.2988   -8.2637 C.2       1 <0>        -0.1544
     21 C20         4.4133    3.5543   -7.8123 C.2       1 <0>        -0.1776
     22 S1          3.5456    3.2406   -6.2842 S.3       1 <0>         0.0528
     23 H1          1.0039    1.9031    0.0027 H         1 <0>         0.0588
     24 H2         -0.5459    1.8868   -0.8726 H         1 <0>         0.0581
     25 H3         -0.5289    1.8773    0.9072 H         1 <0>         0.0599
     26 H4          0.2319   -0.1594    2.1383 H         1 <0>         0.0544
     27 H5          0.7568   -1.6008    1.2356 H         1 <0>         0.0751
     28 H6          1.7647   -0.1336    1.2338 H         1 <0>         0.0511
     29 H7         -1.9605   -0.1726   -0.8702 H         1 <0>         0.0543
     30 H8         -1.4185   -1.6235    0.0069 H         1 <0>         0.0581
     31 H9         -1.9435   -0.1821    0.9097 H         1 <0>         0.0609
     32 H10         1.1069    1.4778   -1.9616 H         1 <0>         0.1323
     33 H11         2.5092   -1.7613   -4.4054 H         1 <0>         0.1325
     34 H12        -0.5601   -3.0107   -0.7434 H         1 <0>         0.3817
     35 H13         3.3744   -3.5591   -4.1094 H         1 <0>         0.0584
     36 H14         2.4922   -5.0872   -4.3437 H         1 <0>         0.0604
     37 H15         1.8259   -3.5672   -4.9871 H         1 <0>         0.0577
     38 H16         1.8952   -4.2547   -0.7648 H         1 <0>         0.0755
     39 H17         2.5327   -5.4887   -1.8780 H         1 <0>         0.0544
     40 H18         3.4148   -3.9605   -1.6437 H         1 <0>         0.0510
     41 H19        -0.3072   -3.9802   -3.7535 H         1 <0>         0.0543
     42 H20         0.3592   -5.5002   -3.1101 H         1 <0>         0.0610
     43 H21        -0.2784   -4.2662   -1.9969 H         1 <0>         0.0580
     44 H22         2.3063    1.9925   -4.0833 H         1 <0>         0.1213
     45 H23         3.1487   -0.5658   -5.5443 H         1 <0>         0.1369
     46 H24         4.4423    0.2095   -7.8565 H         1 <0>         0.1357
     47 H25         5.1931    2.1504   -9.1960 H         1 <0>         0.1354
     48 H26         4.6670    4.5015   -8.2650 H         1 <0>         0.1866
@<TRIPOS>BOND
     1    1    2 1
     2    1   23 1
     3    1   24 1
     4    1   25 1
     5    2    3 1
     6    2    4 1
     7    2    5 1
     8    3   26 1
     9    3   27 1
    10    3   28 1
    11    4   29 1
    12    4   30 1
    13    4   31 1
    14    5   10 ar
    15    5    6 ar
    16    6    7 ar
    17    6   32 1
    18    7    8 ar
    19    7   16 1
    20    8    9 ar
    21    8   33 1
    22    9   10 ar
    23    9   12 1
    24   10   11 1
    25   11   34 1
    26   12   13 1
    27   12   14 1
    28   12   15 1
    29   13   35 1
    30   13   36 1
    31   13   37 1
    32   14   38 1
    33   14   39 1
    34   14   40 1
    35   15   41 1
    36   15   42 1
    37   15   43 1
    38   16   17 2
    39   16   44 1
    40   17   18 1
    41   17   45 1
    42   18   22 1
    43   18   19 2
    44   19   20 1
    45   19   46 1
    46   20   21 2
    47   20   47 1
    48   21   22 1
    49   21   48 1
@<TRIPOS>MOLECULE
CHEMBL348115
   46    49     0     0     0
SMALL
USER_CHARGES

@<TRIPOS>ATOM
      1 C1         -0.1689    1.7190   -0.2053 C.3       1 <0>        -0.1432
      2 C2         -0.0856    0.2113    0.0411 C.3       1 <0>        -0.0005
      3 C3          0.5742   -0.0483    1.3969 C.3       1 <0>        -0.1434
      4 C4         -1.4735   -0.3758    0.0372 C.2       1 <0>         0.2666
      5 N1         -2.4584   -0.0318    0.8644 N.2       1 <0>        -0.4809
      6 C5         -3.5221   -0.7345    0.5844 C.2       1 <0>         0.2214
      7 N2         -3.2557   -1.5724   -0.4529 N.pl3     1 <0>        -0.3437
      8 N3         -1.9020   -1.2983   -0.7816 N.2       1 <0>        -0.2882
      9 C6         -4.2745   -2.3945   -0.8839 C.2       1 <0>         0.1661
     10 C7         -5.4913   -2.3445   -0.2715 C.2       1 <0>        -0.1354
     11 S1         -5.2188   -1.0917    0.9720 S.3       1 <0>         0.1979
     12 C8         -6.7136   -3.1218   -0.5603 C.ar      1 <0>         0.0549
     13 C9         -7.4335   -3.7096    0.4819 C.ar      1 <0>        -0.1172
     14 C10        -8.5745   -4.4338    0.2051 C.ar      1 <0>        -0.0182
     15 C11        -9.0059   -4.5785   -1.1016 C.ar      1 <0>        -0.6505
     16 C12        -8.2971   -3.9991   -2.1391 C.ar      1 <0>        -0.0177
     17 C13        -7.1577   -3.2674   -1.8761 C.ar      1 <0>        -0.1051
     18 S2        -10.4644   -5.5053   -1.4460 S.o2      1 <0>         2.4979
     19 O1        -10.2909   -5.9732   -2.7765 O.2       1 <0>        -0.9339
     20 O2        -10.5760   -6.4207   -0.3649 O.2       1 <0>        -0.9339
     21 C14       -11.8129   -4.2937   -1.3806 C.3       1 <0>        -0.6498
     22 C15        -4.0487   -3.3265   -2.0062 C.ar      1 <0>        -0.0571
     23 C16        -4.0845   -4.7062   -1.7906 C.ar      1 <0>        -0.0822
     24 C17        -3.8731   -5.5711   -2.8440 C.ar      1 <0>        -0.1161
     25 C18        -3.6256   -5.0750   -4.1119 C.ar      1 <0>        -0.0977
     26 C19        -3.5886   -3.7095   -4.3327 C.ar      1 <0>        -0.1169
     27 C20        -3.8040   -2.8329   -3.2898 C.ar      1 <0>        -0.0824
     28 H1          0.8350    2.1436   -0.2025 H         1 <0>         0.0725
     29 H2         -0.6389    1.9039   -1.1712 H         1 <0>         0.0560
     30 H3         -0.7621    2.1836    0.5824 H         1 <0>         0.0690
     31 H4          0.5076   -0.2533   -0.7466 H         1 <0>         0.0991
     32 H5         -0.0190    0.4163    2.1845 H         1 <0>         0.0690
     33 H6          0.6336   -1.1225    1.5723 H         1 <0>         0.0562
     34 H7          1.5781    0.3763    1.3996 H         1 <0>         0.0726
     35 H8         -7.0977   -3.5977    1.5022 H         1 <0>         0.1406
     36 H9         -9.1321   -4.8892    1.0102 H         1 <0>         0.1510
     37 H10        -8.6392   -4.1162   -3.1568 H         1 <0>         0.1497
     38 H11        -6.6078   -2.8120   -2.6864 H         1 <0>         0.1371
     39 H12       -11.6417   -3.5188   -2.1278 H         1 <0>         0.1326
     40 H13       -12.7600   -4.7929   -1.5852 H         1 <0>         0.1348
     41 H14       -11.8472   -3.8415   -0.3894 H         1 <0>         0.1328
     42 H15        -4.2769   -5.0947   -0.8015 H         1 <0>         0.1246
     43 H16        -3.9005   -6.6380   -2.6788 H         1 <0>         0.1311
     44 H17        -3.4600   -5.7569   -4.9329 H         1 <0>         0.1294
     45 H18        -3.3946   -3.3292   -5.3247 H         1 <0>         0.1301
     46 H19        -3.7793   -1.7673   -3.4644 H         1 <0>         0.1211
@<TRIPOS>BOND
     1    1    2 1
     2    1   28 1
     3    1   29 1
     4    1   30 1
     5    2    3 1
     6    2    4 1
     7    2   31 1
     8    3   32 1
     9    3   33 1
    10    3   34 1
    11    4    8 2
    12    4    5 1
    13    5    6 2
    14    6   11 1
    15    6    7 1
    16    7    8 1
    17    7    9 1
    18    9   10 2
    19    9   22 1
    20   10   11 1
    21   10   12 1
    22   12   17 ar
    23   12   13 ar
    24   13   14 ar
    25   13   35 1
    26   14   15 ar
    27   14   36 1
    28   15   16 ar
    29   15   18 1
    30   16   17 ar
    31   16   37 1
    32   17   38 1
    33   18   19 2
    34   18   20 2
    35   18   21 1
    36   21   39 1
    37   21   40 1
    38   21   41 1
    39   22   27 ar
    40   22   23 ar
    41   23   24 ar
    42   23   42 1
    43   24   25 ar
    44   24   43 1
    45   25   26 ar
    46   25   44 1
    47   26   27 ar
    48   26   45 1
    49   27   46 1
@<TRIPOS>MOLECULE
CHEMBL513053
   40    42     0     0     0
SMALL
USER_CHARGES

@<TRIPOS>ATOM
      1 C1         -0.2352    1.2161    0.1514 C.3       1 <0>        -0.1563
      2 C2         -0.0855   -0.3024    0.0396 C.3       1 <0>        -0.1010
      3 C3          0.5593   -0.6480   -1.2780 C.2       1 <0>        -0.0614
      4 C4          1.8793   -0.8879   -1.3371 C.2       1 <0>        -0.1138
      5 C5          2.6730   -0.9516   -0.0969 C.ar      1 <0>        -0.0188
      6 C6          2.4628   -0.0155    0.9184 C.ar      1 <0>        -0.1610
      7 C7          3.2111   -0.0796    2.0817 C.ar      1 <0>         0.1220
      8 C8          4.1685   -1.0715    2.2398 C.ar      1 <0>        -0.1736
      9 C9          4.3811   -2.0037    1.2341 C.ar      1 <0>         0.1240
     10 C10         3.6340   -1.9516    0.0695 C.ar      1 <0>        -0.1436
     11 O1          5.3202   -2.9728    1.3949 O.3       1 <0>        -0.4961
     12 O2          3.0078    0.8308    3.0700 O.3       1 <0>        -0.4952
     13 C11        -0.2585   -0.7226   -2.5011 C.ar      1 <0>        -0.0475
     14 C12        -0.8757    0.4399   -3.0013 C.ar      1 <0>        -0.1032
     15 C13        -1.6337    0.3958   -4.1257 C.ar      1 <0>        -0.1043
     16 C14        -1.8114   -0.8219   -4.8084 C.ar      1 <0>        -0.0507
     17 C15        -2.5915   -0.8910   -5.9746 C.ar      1 <0>        -0.1072
     18 C16        -2.7453   -2.0831   -6.6142 C.ar      1 <0>        -0.1153
     19 C17        -2.1398   -3.2411   -6.1301 C.ar      1 <0>        -0.1156
     20 C18        -1.3769   -3.2135   -5.0035 C.ar      1 <0>        -0.1063
     21 C19        -1.1951   -2.0001   -4.3155 C.ar      1 <0>        -0.0502
     22 C20        -0.4103   -1.9360   -3.1547 C.ar      1 <0>        -0.0916
     23 H1          0.7188    1.6928   -0.0742 H         1 <0>         0.0630
     24 H2         -0.9895    1.5600   -0.5563 H         1 <0>         0.0626
     25 H3         -0.5414    1.4774    1.1643 H         1 <0>         0.0635
     26 H4          0.5380   -0.6671    0.8559 H         1 <0>         0.0859
     27 H5         -1.0686   -0.7696    0.0966 H         1 <0>         0.0719
     28 H6          2.3592   -1.0342   -2.2935 H         1 <0>         0.1278
     29 H7          1.7181    0.7571    0.7962 H         1 <0>         0.1512
     30 H8          4.7504   -1.1179    3.1484 H         1 <0>         0.1348
     31 H9          3.7970   -2.6803   -0.7108 H         1 <0>         0.1336
     32 H10         4.9841   -3.7823    1.8033 H         1 <0>         0.3932
     33 H11         2.3410    0.5655    3.7181 H         1 <0>         0.3924
     34 H12        -0.7443    1.3783   -2.4832 H         1 <0>         0.1265
     35 H13        -2.1014    1.2958   -4.4968 H         1 <0>         0.1287
     36 H14        -3.0674   -0.0024   -6.3621 H         1 <0>         0.1274
     37 H15        -3.3461   -2.1320   -7.5104 H         1 <0>         0.1238
     38 H16        -2.2783   -4.1740   -6.6564 H         1 <0>         0.1240
     39 H17        -0.9138   -4.1187   -4.6393 H         1 <0>         0.1272
     40 H18         0.0680   -2.8249   -2.7708 H         1 <0>         0.1290
@<TRIPOS>BOND
     1    1    2 1
     2    1   23 1
     3    1   24 1
     4    1   25 1
     5    2    3 1
     6    2   26 1
     7    2   27 1
     8    3    4 2
     9    3   13 1
    10    4    5 1
    11    4   28 1
    12    5   10 ar
    13    5    6 ar
    14    6    7 ar
    15    6   29 1
    16    7    8 ar
    17    7   12 1
    18    8    9 ar
    19    8   30 1
    20    9   10 ar
    21    9   11 1
    22   10   31 1
    23   11   32 1
    24   12   33 1
    25   13   22 ar
    26   13   14 ar
    27   14   15 ar
    28   14   34 1
    29   15   16 ar
    30   15   35 1
    31   16   21 ar
    32   16   17 ar
    33   17   18 ar
    34   17   36 1
    35   18   19 ar
    36   18   37 1
    37   19   20 ar
    38   19   38 1
    39   20   21 ar
    40   20   39 1
    41   21   22 ar
    42   22   40 1
@<TRIPOS>MOLECULE
CHEMBL33957
   32    34     0     0     0
SMALL
USER_CHARGES

@<TRIPOS>ATOM
      1 C1         -0.0167    1.3806    0.0096 C.ar      1 <0>        -0.0307
      2 C2          1.1672    2.0822    0.0021 C.ar      1 <0>        -0.1664
      3 C3          2.3886    1.4233   -0.0131 C.ar      1 <0>         0.1147
      4 C4          2.3994    0.0300   -0.0211 C.ar      1 <0>        -0.1028
      5 C5          1.2130   -0.6733   -0.0144 C.ar      1 <0>        -0.0092
      6 C6          0.0021   -0.0041    0.0020 C.ar      1 <0>        -0.1063
      7 Br1        -1.6201   -0.9759    0.0129 Br        1 <0>        -0.0277
      8 C7          1.2357   -2.1801   -0.0237 C.3       1 <0>        -0.0639
      9 C8          1.9531   -2.6717   -1.2825 C.3       1 <0>        -0.1102
     10 C9          1.9762   -4.2015   -1.2919 C.3       1 <0>        -0.1195
     11 C10         2.7165   -4.7080   -0.0525 C.3       1 <0>        -0.1222
     12 C11         1.9991   -4.2165    1.2064 C.3       1 <0>        -0.1195
     13 C12         1.9761   -2.6867    1.2158 C.3       1 <0>        -0.1102
     14 O1          3.4124    2.3106   -0.0181 O.3       1 <0>        -0.2723
     15 C13         3.0050    3.5852   -0.0074 C.2       1 <0>         0.4976
     16 O2          3.7093    4.5669   -0.0085 O.2       1 <0>        -0.4215
     17 C14         1.4897    3.5598    0.0070 C.3       1 <0>        -0.1430
     18 H1         -0.9586    1.9088    0.0260 H         1 <0>         0.1449
     19 H2          3.3399   -0.5008   -0.0329 H         1 <0>         0.1457
     20 H3          0.2137   -2.5590   -0.0166 H         1 <0>         0.0991
     21 H4          1.4257   -2.3108   -2.1656 H         1 <0>         0.0658
     22 H5          2.9751   -2.2928   -1.2897 H         1 <0>         0.0662
     23 H6          0.9541   -4.5803   -1.2848 H         1 <0>         0.0643
     24 H7          2.4872   -4.5516   -2.1888 H         1 <0>         0.0653
     25 H8          2.7329   -5.7978   -0.0592 H         1 <0>         0.0631
     26 H9          3.7385   -4.3291   -0.0596 H         1 <0>         0.0624
     27 H10         0.9771   -4.5953    1.2135 H         1 <0>         0.0643
     28 H11         2.5265   -4.5773    2.0894 H         1 <0>         0.0653
     29 H12         2.9981   -2.3078    1.2087 H         1 <0>         0.0662
     30 H13         1.4650   -2.3365    2.1126 H         1 <0>         0.0658
     31 H14         1.0885    4.0439   -0.8834 H         1 <0>         0.1374
     32 H15         1.1057    4.0343    0.9100 H         1 <0>         0.1374
@<TRIPOS>BOND
     1    1    6 ar
     2    1    2 ar
     3    1   18 1
     4    2   17 1
     5    2    3 ar
     6    3    4 ar
     7    3   14 1
     8    4    5 ar
     9    4   19 1
    10    5    6 ar
    11    5    8 1
    12    6    7 1
    13    8   13 1
    14    8    9 1
    15    8   20 1
    16    9   10 1
    17    9   21 1
    18    9   22 1
    19   10   11 1
    20   10   23 1
    21   10   24 1
    22   11   12 1
    23   11   25 1
    24   11   26 1
    25   12   13 1
    26   12   27 1
    27   12   28 1
    28   13   29 1
    29   13   30 1
    30   14   15 1
    31   15   16 2
    32   15   17 1
    33   17   31 1
    34   17   32 1
@<TRIPOS>MOLECULE
CHEMBL13988
   51    53     0     0     0
SMALL
USER_CHARGES

@<TRIPOS>ATOM
      1 C1         -0.0187    1.5258    0.0104 C.3       1 <0>        -0.1363
      2 C2          0.0021   -0.0041    0.0020 C.3       1 <0>        -0.0511
      3 C3         -1.4208   -0.5776    0.2013 C.3       1 <0>         0.0543
      4 O1         -1.4942   -0.7625    1.6248 O.3       1 <0>        -0.2916
      5 C4         -0.2443   -0.9743    2.1166 C.ar      1 <0>         0.1501
      6 C5          0.7293   -0.5432    1.2190 C.ar      1 <0>        -0.1762
      7 C6          2.0638   -0.6510    1.5199 C.ar      1 <0>        -0.0120
      8 C7          2.4598   -1.2079    2.7410 C.ar      1 <0>        -0.1904
      9 C8          1.4871   -1.6495    3.6428 C.ar      1 <0>        -0.0396
     10 C9          0.1529   -1.5337    3.3323 C.ar      1 <0>        -0.1034
     11 C10        -0.8878   -2.0127    4.3115 C.3       1 <0>        -0.0216
     12 C11        -0.1970   -2.5784    5.5539 C.3       1 <0>        -0.1482
     13 C12        -1.7851   -0.8412    4.7157 C.3       1 <0>        -0.1412
     14 C13        -1.7378   -3.1046    3.6588 C.3       1 <0>        -0.1415
     15 C14         3.8925   -1.3287    3.0739 C.2       1 <0>         0.4298
     16 O2          4.7348   -0.9432    2.2853 O.2       1 <0>        -0.4643
     17 C15         4.3018   -1.9148    4.3586 C.2       1 <0>        -0.2419
     18 C16         5.5945   -2.0237    4.6590 C.2       1 <0>        -0.0488
     19 C17         6.0140   -2.6245    5.9758 C.3       1 <0>        -0.0732
     20 C18         6.9757   -3.7873    5.7226 C.3       1 <0>        -0.1541
     21 C19         6.5222   -5.1848    6.1495 C.3       1 <0>        -0.1789
     22 C20         7.6101   -4.4580    6.9427 C.3       1 <0>        -0.1786
     23 C21         0.6300   -0.5328   -1.2892 C.3       1 <0>        -0.1379
     24 H1          1.0039    1.9031    0.0027 H         1 <0>         0.0641
     25 H2         -0.5459    1.8868   -0.8726 H         1 <0>         0.0658
     26 H3         -0.5289    1.8773    0.9072 H         1 <0>         0.0605
     27 H4         -2.1746    0.1344   -0.1349 H         1 <0>         0.1096
     28 H5         -1.5293   -1.5299   -0.3178 H         1 <0>         0.0813
     29 H6          2.8069   -0.3064    0.8160 H         1 <0>         0.1334
     30 H7          1.7847   -2.0831    4.5861 H         1 <0>         0.1441
     31 H8          0.4086   -1.8005    6.0189 H         1 <0>         0.0595
     32 H9         -0.9497   -2.9248    6.2621 H         1 <0>         0.0623
     33 H10         0.4423   -3.4130    5.2659 H         1 <0>         0.0595
     34 H11        -2.2772   -0.4382    3.8306 H         1 <0>         0.0644
     35 H12        -2.5378   -1.1876    5.4239 H         1 <0>         0.0589
     36 H13        -1.1795   -0.0633    5.1807 H         1 <0>         0.0540
     37 H14        -1.0986   -3.9392    3.3708 H         1 <0>         0.0538
     38 H15        -2.4905   -3.4510    4.3670 H         1 <0>         0.0592
     39 H16        -2.2299   -2.7016    2.7737 H         1 <0>         0.0633
     40 H17         3.5540   -2.2570    5.0587 H         1 <0>         0.1298
     41 H18         6.3423   -1.6815    3.9589 H         1 <0>         0.1265
     42 H19         6.5124   -1.8657    6.5790 H         1 <0>         0.0898
     43 H20         5.1341   -2.9896    6.5054 H         1 <0>         0.0764
     44 H21         7.5815   -3.7083    4.8199 H         1 <0>         0.1077
     45 H22         5.5389   -5.2759    6.6108 H         1 <0>         0.0952
     46 H23         6.8296   -6.0256    5.5276 H         1 <0>         0.0946
     47 H24         8.6331   -4.8205    6.8426 H         1 <0>         0.0957
     48 H25         7.3424   -4.0708    7.9258 H         1 <0>         0.0956
     49 H26         1.6576   -0.1776   -1.3654 H         1 <0>         0.0652
     50 H27         0.6221   -1.6227   -1.2772 H         1 <0>         0.0608
     51 H28         0.0574   -0.1747   -2.1448 H         1 <0>         0.0653
@<TRIPOS>BOND
     1    1    2 1
     2    1   24 1
     3    1   25 1
     4    1   26 1
     5    2    6 1
     6    2    3 1
     7    2   23 1
     8    3    4 1
     9    3   27 1
    10    3   28 1
    11    4    5 1
    12    5   10 ar
    13    5    6 ar
    14    6    7 ar
    15    7    8 ar
    16    7   29 1
    17    8    9 ar
    18    8   15 1
    19    9   10 ar
    20    9   30 1
    21   10   11 1
    22   11   12 1
    23   11   13 1
    24   11   14 1
    25   12   31 1
    26   12   32 1
    27   12   33 1
    28   13   34 1
    29   13   35 1
    30   13   36 1
    31   14   37 1
    32   14   38 1
    33   14   39 1
    34   15   16 2
    35   15   17 1
    36   17   18 2
    37   17   40 1
    38   18   19 1
    39   18   41 1
    40   19   20 1
    41   19   42 1
    42   19   43 1
    43   20   22 1
    44   20   21 1
    45   20   44 1
    46   21   22 1
    47   21   45 1
    48   21   46 1
    49   22   47 1
    50   22   48 1
    51   23   49 1
    52   23   50 1
    53   23   51 1
@<TRIPOS>MOLECULE
CHEMBL23241
   41    43     0     0     0
SMALL
USER_CHARGES

@<TRIPOS>ATOM
      1 C1         -0.0173    1.4248    0.0099 C.3       1 <0>         0.0232
      2 O1          0.0021   -0.0041    0.0020 O.3       1 <0>        -0.3034
      3 C2         -1.1985   -0.6365    0.0101 C.ar      1 <0>         0.1882
      4 C3         -2.3865    0.0863    0.0194 C.ar      1 <0>        -0.2611
      5 C4         -3.5885   -0.5926    0.0270 C.ar      1 <0>         0.1401
      6 N1         -3.6267   -1.9122    0.0259 N.ar      1 <0>        -0.5019
      7 C5         -2.5298   -2.6426    0.0172 C.ar      1 <0>         0.1503
      8 C6         -1.2751   -2.0385    0.0033 C.ar      1 <0>        -0.1224
      9 C7         -0.0427   -2.8607   -0.0129 C.2       1 <0>        -0.1412
     10 C8          0.4217   -3.5147   -1.1067 C.2       1 <0>        -0.0044
     11 C9          1.6939   -4.2504   -0.7682 C.3       1 <0>        -0.0937
     12 C10         1.9635   -3.9587    0.7174 C.3       1 <0>        -0.1758
     13 C11         0.8234   -3.0610    1.1444 C.2       1 <0>         0.3990
     14 O2          0.6571   -2.5934    2.2520 O.2       1 <0>        -0.4335
     15 C12        -0.2203   -3.5078   -2.4267 C.ar      1 <0>         0.0049
     16 C13        -1.4866   -4.0811   -2.5969 C.ar      1 <0>        -0.1186
     17 C14        -2.0821   -4.0703   -3.8399 C.ar      1 <0>        -0.0185
     18 C15        -1.4319   -3.4953   -4.9184 C.ar      1 <0>        -0.6556
     19 C16        -0.1798   -2.9267   -4.7592 C.ar      1 <0>        -0.0212
     20 C17         0.4275   -2.9228   -3.5218 C.ar      1 <0>        -0.1183
     21 S1         -2.2023   -3.4875   -6.5030 S.o2      1 <0>         2.4984
     22 O3         -1.1262   -3.4281   -7.4291 O.2       1 <0>        -0.9355
     23 O4         -3.0812   -4.6040   -6.4843 O.2       1 <0>        -0.9343
     24 C18        -3.1540   -1.9439   -6.5511 C.3       1 <0>        -0.6503
     25 H1          1.0053    1.8021    0.0021 H         1 <0>         0.1059
     26 H2         -0.5445    1.7859   -0.8732 H         1 <0>         0.0598
     27 H3         -0.5275    1.7763    0.9067 H         1 <0>         0.0610
     28 H4         -2.3690    1.1661    0.0212 H         1 <0>         0.1428
     29 H5         -4.5133   -0.0348    0.0343 H         1 <0>         0.1614
     30 H6         -2.6046   -3.7200    0.0170 H         1 <0>         0.1605
     31 H7          1.5618   -5.3212   -0.9232 H         1 <0>         0.1019
     32 H8          2.5168   -3.8799   -1.3795 H         1 <0>         0.1005
     33 H9          1.9590   -4.8842    1.2932 H         1 <0>         0.1134
     34 H10         2.9152   -3.4409    0.8363 H         1 <0>         0.1121
     35 H11        -1.9948   -4.5308   -1.7567 H         1 <0>         0.1364
     36 H12        -3.0586   -4.5120   -3.9729 H         1 <0>         0.1478
     37 H13         0.3207   -2.4808   -5.6060 H         1 <0>         0.1469
     38 H14         1.4022   -2.4745   -3.3982 H         1 <0>         0.1374
     39 H15        -2.4792   -1.0970   -6.4267 H         1 <0>         0.1311
     40 H16        -3.6662   -1.8626   -7.5099 H         1 <0>         0.1348
     41 H17        -3.8885   -1.9447   -5.7457 H         1 <0>         0.1320
@<TRIPOS>BOND
     1    1    2 1
     2    1   25 1
     3    1   26 1
     4    1   27 1
     5    2    3 1
     6    3    8 ar
     7    3    4 ar
     8    4    5 ar
     9    4   28 1
    10    5    6 ar
    11    5   29 1
    12    6    7 ar
    13    7    8 ar
    14    7   30 1
    15    8    9 1
    16    9   13 1
    17    9   10 2
    18   10   11 1
    19   10   15 1
    20   11   12 1
    21   11   31 1
    22   11   32 1
    23   12   13 1
    24   12   33 1
    25   12   34 1
    26   13   14 2
    27   15   20 ar
    28   15   16 ar
    29   16   17 ar
    30   16   35 1
    31   17   18 ar
    32   17   36 1
    33   18   19 ar
    34   18   21 1
    35   19   20 ar
    36   19   37 1
    37   20   38 1
    38   21   22 2
    39   21   23 2
    40   21   24 1
    41   24   39 1
    42   24   40 1
    43   24   41 1
@<TRIPOS>MOLECULE
CHEMBL1223901
   40    43     0     0     0
SMALL
USER_CHARGES

@<TRIPOS>ATOM
      1 C1         -0.0178    1.4608    0.0101 C.3       1 <0>         0.0940
      2 N1          0.0021   -0.0041    0.0020 N.am      1 <0>        -0.5471
      3 C2         -1.1093   -0.8408    0.0026 C.ar      1 <0>         0.0859
      4 C3         -2.4783   -0.6021    0.0105 C.ar      1 <0>        -0.0950
      5 C4         -3.3578   -1.6472    0.0093 C.ar      1 <0>        -0.0687
      6 C5         -2.8835   -2.9665   -0.0001 C.ar      1 <0>        -0.0369
      7 C6         -1.5053   -3.2128   -0.0081 C.ar      1 <0>        -0.0520
      8 C7         -0.6218   -2.1509   -0.0068 C.ar      1 <0>         0.0367
      9 O1          0.7320   -2.0758   -0.0126 O.3       1 <0>        -0.2321
     10 C8          1.1001   -0.7849   -0.0131 C.2       1 <0>         0.6352
     11 O2          2.2473   -0.3823   -0.0225 O.2       1 <0>        -0.4789
     12 C9         -3.8301   -4.0873   -0.0009 C.2       1 <0>        -0.0448
     13 C10        -4.7114   -4.4121   -0.9901 C.2       1 <0>        -0.1347
     14 C11        -5.4589   -5.6024   -0.5734 C.2       1 <0>         0.5043
     15 O3         -6.3232   -6.1491   -1.2310 O.2       1 <0>        -0.4385
     16 O4         -5.0474   -6.0008    0.6437 O.3       1 <0>        -0.3122
     17 C12        -4.0175   -5.1148    1.0909 C.3       1 <0>         0.0717
     18 C13        -4.8842   -3.6849   -2.2687 C.ar      1 <0>        -0.0731
     19 C14        -5.3544   -2.3714   -2.2680 C.ar      1 <0>        -0.0584
     20 C15        -5.5141   -1.6975   -3.4602 C.ar      1 <0>        -0.1504
     21 C16        -5.2081   -2.3247   -4.6606 C.ar      1 <0>         0.1390
     22 C17        -4.7400   -3.6319   -4.6651 C.ar      1 <0>        -0.2056
     23 C18        -4.5719   -4.3099   -3.4763 C.ar      1 <0>        -0.0476
     24 O5         -5.3676   -1.6578   -5.8338 O.3       1 <0>        -0.3153
     25 C19        -5.0340   -2.3627   -7.0312 C.3       1 <0>         0.0248
     26 H1          1.0048    1.8381    0.0023 H         1 <0>         0.1003
     27 H2         -0.5450    1.8219   -0.8730 H         1 <0>         0.0820
     28 H3         -0.5280    1.8123    0.9069 H         1 <0>         0.0824
     29 H4         -2.8479    0.4127    0.0181 H         1 <0>         0.1435
     30 H5         -4.4208   -1.4568    0.0158 H         1 <0>         0.1448
     31 H6         -1.1350   -4.2273   -0.0150 H         1 <0>         0.1484
     32 H7         -3.0903   -5.6657    1.2486 H         1 <0>         0.1254
     33 H8         -4.3238   -4.6257    2.0155 H         1 <0>         0.1268
     34 H9         -5.5933   -1.8831   -1.3348 H         1 <0>         0.1310
     35 H10        -5.8780   -0.6806   -3.4605 H         1 <0>         0.1362
     36 H11        -4.5033   -4.1168   -5.6007 H         1 <0>         0.1333
     37 H12        -4.2035   -5.3251   -3.4803 H         1 <0>         0.1273
     38 H13        -5.2067   -1.7176   -7.8927 H         1 <0>         0.1028
     39 H14        -3.9842   -2.6545   -7.0006 H         1 <0>         0.0572
     40 H15        -5.6565   -3.2536   -7.1138 H         1 <0>         0.0583
@<TRIPOS>BOND
     1    1    2 1
     2    1   26 1
     3    1   27 1
     4    1   28 1
     5    2   10 am
     6    2    3 1
     7    3    8 ar
     8    3    4 ar
     9    4    5 ar
    10    4   29 1
    11    5    6 ar
    12    5   30 1
    13    6    7 ar
    14    6   12 1
    15    7    8 ar
    16    7   31 1
    17    8    9 1
    18    9   10 1
    19   10   11 2
    20   12   17 1
    21   12   13 2
    22   13   14 1
    23   13   18 1
    24   14   15 2
    25   14   16 1
    26   16   17 1
    27   17   32 1
    28   17   33 1
    29   18   23 ar
    30   18   19 ar
    31   19   20 ar
    32   19   34 1
    33   20   21 ar
    34   20   35 1
    35   21   22 ar
    36   21   24 1
    37   22   23 ar
    38   22   36 1
    39   23   37 1
    40   24   25 1
    41   25   38 1
    42   25   39 1
    43   25   40 1
@<TRIPOS>MOLECULE
CHEMBL108512
   46    49     0     0     0
SMALL
USER_CHARGES

@<TRIPOS>ATOM
      1 C1         -0.0686    0.8753    0.8210 C.3       1 <0>        -0.1555
      2 C2          0.0874   -0.5834    0.3866 C.3       1 <0>         0.1330
      3 C3          0.8104   -0.6551   -0.9379 C.2       1 <0>        -0.0555
      4 C4          1.9439   -1.3621   -0.7199 C.2       1 <0>        -0.0108
      5 C5          1.9883   -1.7531    0.6910 C.2       1 <0>         0.4870
      6 O1          2.8794   -2.3982    1.2088 O.2       1 <0>        -0.4231
      7 O2          0.8970   -1.2923    1.3294 O.3       1 <0>        -0.2942
      8 O3          2.8843   -1.6600   -1.6548 O.3       1 <0>        -0.2148
      9 C6          4.1179   -1.1051   -1.5185 C.ar      1 <0>         0.1148
     10 C7          4.3410   -0.1750   -0.5054 C.ar      1 <0>        -0.1595
     11 C8          5.5921    0.3893   -0.3654 C.ar      1 <0>        -0.0335
     12 C9          6.6058    0.0280   -1.2271 C.ar      1 <0>        -0.1394
     13 C10         6.4150   -0.9103   -2.2638 C.ar      1 <0>        -0.0509
     14 C11         5.1228   -1.4762   -2.3791 C.ar      1 <0>        -0.0992
     15 C12         7.5963   -1.1682   -3.0743 C.2       1 <0>        -0.1463
     16 C13         8.7385   -0.5243   -2.7937 C.2       1 <0>        -0.1387
     17 S1          8.3093    0.4953   -1.3960 S.3       1 <0>         0.0358
     18 C14         0.3690   -0.0716   -2.2144 C.ar      1 <0>         0.0103
     19 C15         0.3079    1.3172   -2.3686 C.ar      1 <0>        -0.1176
     20 C16        -0.1064    1.8564   -3.5681 C.ar      1 <0>        -0.0202
     21 C17        -0.4613    1.0272   -4.6179 C.ar      1 <0>        -0.6504
     22 C18        -0.4036   -0.3481   -4.4732 C.ar      1 <0>        -0.0180
     23 C19         0.0137   -0.9027   -3.2817 C.ar      1 <0>        -0.1068
     24 S2         -0.9900    1.7260   -6.1465 S.o2      1 <0>         2.4982
     25 O4         -1.7513    0.7008   -6.7699 O.2       1 <0>        -0.9337
     26 O5         -1.5938    2.9621   -5.7905 O.2       1 <0>        -0.9334
     27 C20         0.5387    2.0225   -7.0770 C.3       1 <0>        -0.6498
     28 C21        -1.2869   -1.2461    0.2721 C.3       1 <0>        -0.1531
     29 H1          0.9151    1.3382    0.8996 H         1 <0>         0.0719
     30 H2         -0.6650    1.4123    0.0834 H         1 <0>         0.0908
     31 H3         -0.5670    0.9147    1.7896 H         1 <0>         0.0899
     32 H4          3.5407    0.1023    0.1648 H         1 <0>         0.1287
     33 H5          5.7767    1.1116    0.4161 H         1 <0>         0.1395
     34 H6          4.9238   -2.2030   -3.1528 H         1 <0>         0.1395
     35 H7          7.5533   -1.8712   -3.8931 H         1 <0>         0.1423
     36 H8          9.6916   -0.6041   -3.2954 H         1 <0>         0.1937
     37 H9          0.5842    1.9655   -1.5502 H         1 <0>         0.1401
     38 H10        -0.1544    2.9285   -3.6887 H         1 <0>         0.1494
     39 H11        -0.6822   -0.9885   -5.2970 H         1 <0>         0.1515
     40 H12         0.0625   -1.9759   -3.1718 H         1 <0>         0.1396
     41 H13         1.0291    1.0711   -7.2829 H         1 <0>         0.1329
     42 H14         0.3010    2.5198   -8.0174 H         1 <0>         0.1356
     43 H15         1.2046    2.6549   -6.4898 H         1 <0>         0.1320
     44 H16        -1.8818   -0.7221   -0.4758 H         1 <0>         0.0885
     45 H17        -1.1644   -2.2875   -0.0255 H         1 <0>         0.0725
     46 H18        -1.7935   -1.2010    1.2362 H         1 <0>         0.0869
@<TRIPOS>BOND
     1    1    2 1
     2    1   29 1
     3    1   30 1
     4    1   31 1
     5    2    7 1
     6    2    3 1
     7    2   28 1
     8    3    4 2
     9    3   18 1
    10    4    5 1
    11    4    8 1
    12    5    6 2
    13    5    7 1
    14    8    9 1
    15    9   14 ar
    16    9   10 ar
    17   10   11 ar
    18   10   32 1
    19   11   12 ar
    20   11   33 1
    21   12   17 1
    22   12   13 ar
    23   13   14 ar
    24   13   15 1
    25   14   34 1
    26   15   16 2
    27   15   35 1
    28   16   17 1
    29   16   36 1
    30   18   23 ar
    31   18   19 ar
    32   19   20 ar
    33   19   37 1
    34   20   21 ar
    35   20   38 1
    36   21   22 ar
    37   21   24 1
    38   22   23 ar
    39   22   39 1
    40   23   40 1
    41   24   25 2
    42   24   26 2
    43   24   27 1
    44   27   41 1
    45   27   42 1
    46   27   43 1
    47   28   44 1
    48   28   45 1
    49   28   46 1
@<TRIPOS>MOLECULE
CHEMBL275120
   47    49     0     0     0
SMALL
USER_CHARGES

@<TRIPOS>ATOM
      1 C1         -0.1650    2.1071    0.9392 C.3       1 <0>        -0.1364
      2 C2         -0.0542    0.6565    0.4655 C.3       1 <0>        -0.0505
      3 C3         -1.4419   -0.0272    0.4482 C.3       1 <0>         0.0537
      4 O1         -1.5112   -0.6419    1.7457 O.3       1 <0>        -0.2907
      5 C4         -0.2535   -0.9254    2.1777 C.ar      1 <0>         0.1527
      6 C5          0.6975   -0.1882    1.4764 C.ar      1 <0>        -0.1766
      7 C6          2.0345   -0.3106    1.7595 C.ar      1 <0>        -0.0308
      8 C7          2.4567   -1.1926    2.7610 C.ar      1 <0>        -0.1934
      9 C8          1.5069   -1.9410    3.4632 C.ar      1 <0>        -0.0264
     10 C9          0.1698   -1.8070    3.1740 C.ar      1 <0>        -0.1022
     11 C10        -0.8459   -2.6181    3.9367 C.3       1 <0>        -0.0223
     12 C11        -0.1293   -3.4978    4.9631 C.3       1 <0>        -0.1484
     13 C12        -1.8126   -1.6768    4.6580 C.3       1 <0>        -0.1407
     14 C13        -1.6268   -3.5031    2.9631 C.3       1 <0>        -0.1411
     15 C14         3.8915   -1.3317    3.0727 C.2       1 <0>         0.4440
     16 O2          4.2652   -2.1944    3.8438 O.2       1 <0>        -0.4485
     17 C15         4.8750   -0.4227    2.4480 C.ar      1 <0>        -0.1543
     18 C16         4.5319    0.9043    2.1794 C.ar      1 <0>        -0.0871
     19 C17         5.4549    1.7474    1.5966 C.ar      1 <0>        -0.1284
     20 C18         6.7182    1.2811    1.2776 C.ar      1 <0>        -0.0932
     21 C19         7.0646   -0.0326    1.5405 C.ar      1 <0>        -0.1265
     22 C20         6.1536   -0.8850    2.1287 C.ar      1 <0>        -0.0670
     23 C21         0.6100    0.5826   -0.9108 C.3       1 <0>        -0.1378
     24 H1          0.8336    2.5239    1.0700 H         1 <0>         0.0636
     25 H2         -0.7082    2.6914    0.1965 H         1 <0>         0.0662
     26 H3         -0.6994    2.1394    1.8887 H         1 <0>         0.0611
     27 H4         -2.2345    0.7113    0.3281 H         1 <0>         0.1099
     28 H5         -1.4916   -0.7799   -0.3386 H         1 <0>         0.0815
     29 H6          2.7594    0.2726    1.2111 H         1 <0>         0.1399
     30 H7          1.8247   -2.6258    4.2354 H         1 <0>         0.1478
     31 H8          0.4271   -2.8673    5.6566 H         1 <0>         0.0599
     32 H9         -0.8639   -4.0844    5.5147 H         1 <0>         0.0623
     33 H10         0.5594   -4.1684    4.4492 H         1 <0>         0.0602
     34 H11        -2.3231   -1.0501    3.9268 H         1 <0>         0.0642
     35 H12        -2.5472   -2.2635    5.2096 H         1 <0>         0.0594
     36 H13        -1.2562   -1.0463    5.3516 H         1 <0>         0.0539
     37 H14        -0.9381   -4.1737    2.4492 H         1 <0>         0.0538
     38 H15        -2.3615   -4.0897    3.5148 H         1 <0>         0.0598
     39 H16        -2.1373   -2.8764    2.2319 H         1 <0>         0.0631
     40 H17         3.5461    1.2692    2.4272 H         1 <0>         0.1340
     41 H18         5.1910    2.7737    1.3884 H         1 <0>         0.1298
     42 H19         7.4369    1.9455    0.8210 H         1 <0>         0.1282
     43 H20         8.0520   -0.3902    1.2883 H         1 <0>         0.1304
     44 H21         6.4267   -1.9088    2.3374 H         1 <0>         0.1314
     45 H22         1.6153    0.9996   -0.8519 H         1 <0>         0.0646
     46 H23         0.6662   -0.4575   -1.2318 H         1 <0>         0.0612
     47 H24         0.0215    1.1532   -1.6293 H         1 <0>         0.0656
@<TRIPOS>BOND
     1    1    2 1
     2    1   24 1
     3    1   25 1
     4    1   26 1
     5    2    6 1
     6    2    3 1
     7    2   23 1
     8    3    4 1
     9    3   27 1
    10    3   28 1
    11    4    5 1
    12    5   10 ar
    13    5    6 ar
    14    6    7 ar
    15    7    8 ar
    16    7   29 1
    17    8    9 ar
    18    8   15 1
    19    9   10 ar
    20    9   30 1
    21   10   11 1
    22   11   12 1
    23   11   13 1
    24   11   14 1
    25   12   31 1
    26   12   32 1
    27   12   33 1
    28   13   34 1
    29   13   35 1
    30   13   36 1
    31   14   37 1
    32   14   38 1
    33   14   39 1
    34   15   16 2
    35   15   17 1
    36   17   22 ar
    37   17   18 ar
    38   18   19 ar
    39   18   40 1
    40   19   20 ar
    41   19   41 1
    42   20   21 ar
    43   20   42 1
    44   21   22 ar
    45   21   43 1
    46   22   44 1
    47   23   45 1
    48   23   46 1
    49   23   47 1
@<TRIPOS>MOLECULE
CHEMBL302838
   40    44     0     0     0
SMALL
USER_CHARGES

@<TRIPOS>ATOM
      1 C1         -0.0166    1.3766    0.0096 C.ar      1 <0>        -0.1461
      2 C2          1.1732    2.0817    0.0020 C.ar      1 <0>        -0.1077
      3 C3          2.3743    1.4060   -0.0181 C.ar      1 <0>        -0.1183
      4 C4          2.4031    0.0129   -0.0280 C.ar      1 <0>         0.1750
      5 C5          1.2030   -0.6912   -0.0115 C.ar      1 <0>        -0.1131
      6 C6          0.0021   -0.0041    0.0020 C.ar      1 <0>        -0.1043
      7 C7          1.2053   -2.1824    0.0077 C.3       1 <0>        -0.0722
      8 C8          1.7870   -2.7927   -1.2365 C.3       1 <0>        -0.0657
      9 C9          3.2667   -2.8092   -1.2647 C.ar      1 <0>        -0.0821
     10 C10         3.9598   -3.8266   -1.8991 C.ar      1 <0>        -0.1525
     11 C11         5.3413   -3.8876   -1.9088 C.ar      1 <0>        -0.1274
     12 C12         6.1096   -2.9317   -1.2644 C.ar      1 <0>        -0.1317
     13 C13         5.4255   -1.8955   -0.6325 C.ar      1 <0>         0.0066
     14 C14         4.0126   -1.8003   -0.6576 C.ar      1 <0>         0.0825
     15 N1          3.6584   -0.6158   -0.0621 N.pl3     1 <0>        -0.4619
     16 C15         4.7698   -0.0360    0.5038 C.2       1 <0>         0.4720
     17 O1          4.7618    1.0764    1.2716 O.3       1 <0>        -0.6729
     18 C16         5.8981   -0.7646    0.1673 C.2       1 <0>        -0.4510
     19 C17         7.2810   -0.4648    0.5356 C.2       1 <0>         0.6390
     20 O2          7.9658    0.2349   -0.1883 O.2       1 <0>        -0.4877
     21 N2          7.7977   -0.9629    1.6764 N.am      1 <0>        -0.6165
     22 C18         9.1113   -0.6780    2.0263 C.2       1 <0>         0.3093
     23 N3          9.9893    0.0563    1.3776 N.2       1 <0>        -0.5362
     24 C19        11.2107    0.2331    1.8472 C.2       1 <0>         0.0737
     25 C20        11.5134   -0.3739    3.0207 C.2       1 <0>        -0.2731
     26 S1          9.9642   -1.1824    3.3868 S.3       1 <0>         0.0671
     27 H1         -0.9585    1.9048    0.0259 H         1 <0>         0.1179
     28 H2          1.1610    3.1616    0.0115 H         1 <0>         0.1207
     29 H3          3.3008    1.9609   -0.0266 H         1 <0>         0.1430
     30 H4         -0.9285   -0.5522    0.0067 H         1 <0>         0.1198
     31 H5          1.7849   -2.5201    0.8668 H         1 <0>         0.0693
     32 H6          0.1793   -2.5322    0.1220 H         1 <0>         0.0722
     33 H7          1.4267   -3.8179   -1.3214 H         1 <0>         0.0723
     34 H8          1.4297   -2.2301   -2.0990 H         1 <0>         0.0670
     35 H9          3.4011   -4.6002   -2.4050 H         1 <0>         0.1076
     36 H10         5.8314   -4.6972   -2.4291 H         1 <0>         0.1069
     37 H11         7.1881   -2.9874   -1.2521 H         1 <0>         0.1147
     38 H12         7.2521   -1.5203    2.2531 H         1 <0>         0.4229
     39 H13        11.9363    0.8343    1.3196 H         1 <0>         0.1690
     40 H14        12.4363   -0.3673    3.5817 H         1 <0>         0.1918
@<TRIPOS>BOND
     1    1    6 ar
     2    1    2 ar
     3    1   27 1
     4    2    3 ar
     5    2   28 1
     6    3    4 ar
     7    3   29 1
     8    4   15 1
     9    4    5 ar
    10    5    6 ar
    11    5    7 1
    12    6   30 1
    13    7    8 1
    14    7   31 1
    15    7   32 1
    16    8    9 1
    17    8   33 1
    18    8   34 1
    19    9   14 ar
    20    9   10 ar
    21   10   11 ar
    22   10   35 1
    23   11   12 ar
    24   11   36 1
    25   12   13 ar
    26   12   37 1
    27   13   18 1
    28   13   14 ar
    29   14   15 1
    30   15   16 1
    31   16   17 1
    32   16   18 2
    33   18   19 1
    34   19   20 2
    35   19   21 am
    36   21   22 1
    37   21   38 1
    38   22   26 1
    39   22   23 2
    40   23   24 1
    41   24   25 2
    42   24   39 1
    43   25   26 1
    44   25   40 1
@<TRIPOS>MOLECULE
CHEMBL302838__1
   41    45     0     0     0
SMALL
USER_CHARGES

@<TRIPOS>ATOM
      1 C1         -0.0166    1.3766    0.0096 C.ar      1 <0>        -0.1167
      2 C2          1.1732    2.0817    0.0020 C.ar      1 <0>        -0.1007
      3 C3          2.3743    1.4060   -0.0181 C.ar      1 <0>        -0.1222
      4 C4          2.4031    0.0129   -0.0280 C.ar      1 <0>         0.1229
      5 C5          1.2030   -0.6912   -0.0115 C.ar      1 <0>        -0.0850
      6 C6          0.0021   -0.0041    0.0020 C.ar      1 <0>        -0.0978
      7 C7          1.2053   -2.1824    0.0077 C.3       1 <0>        -0.0816
      8 C8          1.7870   -2.7927   -1.2365 C.3       1 <0>        -0.0771
      9 C9          3.2667   -2.8092   -1.2647 C.ar      1 <0>        -0.0753
     10 C10         3.9598   -3.8266   -1.8991 C.ar      1 <0>        -0.0972
     11 C11         5.3413   -3.8876   -1.9088 C.ar      1 <0>        -0.1249
     12 C12         6.1096   -2.9317   -1.2644 C.ar      1 <0>        -0.0746
     13 C13         5.4255   -1.8955   -0.6325 C.ar      1 <0>        -0.0611
     14 C14         4.0126   -1.8003   -0.6576 C.ar      1 <0>         0.1120
     15 N1          3.6584   -0.6158   -0.0621 N.pl3     1 <0>        -0.4177
     16 C15         4.7698   -0.0360    0.5038 C.2       1 <0>         0.3029
     17 O1          4.7618    1.0764    1.2716 O.3       1 <0>        -0.4540
     18 C16         5.8981   -0.7646    0.1673 C.2       1 <0>        -0.2222
     19 C17         7.2810   -0.4648    0.5356 C.2       1 <0>         0.5995
     20 O2          7.9658    0.2349   -0.1883 O.2       1 <0>        -0.4518
     21 N2          7.7977   -0.9629    1.6764 N.am      1 <0>        -0.6168
     22 C18         9.1113   -0.6780    2.0263 C.2       1 <0>         0.2735
     23 N3          9.9893    0.0563    1.3776 N.2       1 <0>        -0.5225
     24 C19        11.2107    0.2331    1.8472 C.2       1 <0>         0.0637
     25 C20        11.5134   -0.3739    3.0207 C.2       1 <0>        -0.2443
     26 S1          9.9642   -1.1824    3.3868 S.3       1 <0>         0.1059
     27 H1         -0.9585    1.9048    0.0259 H         1 <0>         0.1316
     28 H2          1.1610    3.1616    0.0115 H         1 <0>         0.1331
     29 H3          3.3008    1.9609   -0.0266 H         1 <0>         0.1406
     30 H4         -0.9285   -0.5522    0.0067 H         1 <0>         0.1332
     31 H5          1.7849   -2.5201    0.8668 H         1 <0>         0.0746
     32 H6          0.1793   -2.5322    0.1220 H         1 <0>         0.0863
     33 H7          1.4267   -3.8179   -1.3214 H         1 <0>         0.0875
     34 H8          1.4297   -2.2301   -2.0990 H         1 <0>         0.0788
     35 H9          3.4011   -4.6002   -2.4050 H         1 <0>         0.1292
     36 H10         5.8314   -4.6972   -2.4291 H         1 <0>         0.1289
     37 H11         7.1881   -2.9874   -1.2521 H         1 <0>         0.1340
     38 H12         7.2521   -1.5203    2.2531 H         1 <0>         0.4263
     39 H13        11.9363    0.8343    1.3196 H         1 <0>         0.1767
     40 H14        12.4363   -0.3673    3.5817 H         1 <0>         0.1999
     41 H15         4.6523    0.9014    2.2163 H         1 <0>         0.4022
@<TRIPOS>BOND
     1    1    6 ar
     2    1    2 ar
     3    1   27 1
     4    2    3 ar
     5    2   28 1
     6    3    4 ar
     7    3   29 1
     8    4   15 1
     9    4    5 ar
    10    5    6 ar
    11    5    7 1
    12    6   30 1
    13    7    8 1
    14    7   31 1
    15    7   32 1
    16    8    9 1
    17    8   33 1
    18    8   34 1
    19    9   14 ar
    20    9   10 ar
    21   10   11 ar
    22   10   35 1
    23   11   12 ar
    24   11   36 1
    25   12   13 ar
    26   12   37 1
    27   13   18 1
    28   13   14 ar
    29   14   15 1
    30   15   16 1
    31   16   17 1
    32   16   18 2
    33   17   41 1
    34   18   19 1
    35   19   20 2
    36   19   21 am
    37   21   22 1
    38   21   38 1
    39   22   26 1
    40   22   23 2
    41   23   24 1
    42   24   25 2
    43   24   39 1
    44   25   26 1
    45   25   40 1
@<TRIPOS>MOLECULE
CHEMBL302838__2
   41    45     0     0     0
SMALL
USER_CHARGES

@<TRIPOS>ATOM
      1 C1         -0.0166    1.3707    0.0096 C.ar      1 <0>        -0.1242
      2 C2          1.1692    2.0844    0.0021 C.ar      1 <0>        -0.0987
      3 C3          2.3612    1.3938    0.0439 C.ar      1 <0>        -0.1232
      4 C4          2.3679   -0.0001    0.0420 C.ar      1 <0>         0.1462
      5 C5          1.2140   -0.7133   -0.0403 C.ar      1 <0>        -0.0927
      6 C6          0.0021   -0.0041    0.0020 C.ar      1 <0>        -0.1078
      7 C7          1.0423   -2.1758   -0.3195 C.3       1 <0>        -0.0747
      8 C8          1.9730   -2.7402   -1.3619 C.3       1 <0>        -0.0725
      9 C9          3.4077   -2.7974   -0.9354 C.ar      1 <0>        -0.0954
     10 C10         4.1493   -3.9078   -1.3435 C.ar      1 <0>        -0.0822
     11 C11         5.4576   -4.0990   -0.9605 C.ar      1 <0>        -0.1343
     12 C12         6.1062   -3.1802   -0.1422 C.ar      1 <0>        -0.0333
     13 C13         5.3812   -2.0720    0.2391 C.ar      1 <0>        -0.1268
     14 C14         4.0497   -1.8644   -0.1525 C.ar      1 <0>         0.1565
     15 N1          3.6173   -0.6179    0.2644 N.am      1 <0>        -0.4926
     16 C15         4.5680    0.0169    1.0032 C.2       1 <0>         0.5314
     17 O1          4.4649    1.1121    1.5141 O.2       1 <0>        -0.4698
     18 C16         5.7757   -0.8905    1.0721 C.3       1 <0>        -0.0990
     19 C17         6.9849   -0.2090    0.4854 C.2       1 <0>         0.5316
     20 O2          7.4925   -0.6410   -0.5279 O.2       1 <0>        -0.4411
     21 N2          7.5023    0.8806    1.0866 N.am      1 <0>        -0.6160
     22 C18         8.6177    1.5092    0.5455 C.2       1 <0>         0.2692
     23 N3          9.2908    1.1893   -0.5385 N.2       1 <0>        -0.5220
     24 C19        10.3388    1.8937   -0.9237 C.2       1 <0>         0.0620
     25 C20        10.6849    2.9546   -0.1539 C.2       1 <0>        -0.2428
     26 S1          9.4306    2.8689    1.1139 S.3       1 <0>         0.1179
     27 H1         -0.9602    1.8958    0.0259 H         1 <0>         0.1281
     28 H2          1.1606    3.1637   -0.0362 H         1 <0>         0.1331
     29 H3          3.2950    1.9354    0.0779 H         1 <0>         0.1393
     30 H4         -0.9306   -0.5479    0.0294 H         1 <0>         0.1303
     31 H5          1.1957   -2.7233    0.6105 H         1 <0>         0.0749
     32 H6          0.0165   -2.3448   -0.6472 H         1 <0>         0.0877
     33 H7          1.6445   -3.7495   -1.6102 H         1 <0>         0.0893
     34 H8          1.9022   -2.1255   -2.2593 H         1 <0>         0.0771
     35 H9          3.6801   -4.6422   -1.9814 H         1 <0>         0.1313
     36 H10         5.9884   -4.9761   -1.3003 H         1 <0>         0.1324
     37 H11         7.1268   -3.3280    0.1785 H         1 <0>         0.1406
     38 H12         5.9677   -1.1944    2.1011 H         1 <0>         0.1604
     39 H13         7.0964    1.2261    1.8970 H         1 <0>         0.4317
     40 H14        10.8958    1.6361   -1.8124 H         1 <0>         0.1773
     41 H15        11.4940    3.6594   -0.2759 H         1 <0>         0.2007
@<TRIPOS>BOND
     1    1    6 ar
     2    1    2 ar
     3    1   27 1
     4    2    3 ar
     5    2   28 1
     6    3    4 ar
     7    3   29 1
     8    4   15 1
     9    4    5 ar
    10    5    6 ar
    11    5    7 1
    12    6   30 1
    13    7    8 1
    14    7   31 1
    15    7   32 1
    16    8    9 1
    17    8   33 1
    18    8   34 1
    19    9   14 ar
    20    9   10 ar
    21   10   11 ar
    22   10   35 1
    23   11   12 ar
    24   11   36 1
    25   12   13 ar
    26   12   37 1
    27   13   18 1
    28   13   14 ar
    29   14   15 1
    30   15   16 am
    31   16   17 2
    32   16   18 1
    33   18   19 1
    34   18   38 1
    35   19   20 2
    36   19   21 am
    37   21   22 1
    38   21   39 1
    39   22   26 1
    40   22   23 2
    41   23   24 1
    42   24   25 2
    43   24   40 1
    44   25   26 1
    45   25   41 1
