@<TRIPOS>MOLECULE
2OYU-IMS
 55 57 0 0 0
SMALL
SF_CHARGES


@<TRIPOS>ATOM
1    C        22.2930   51.5060   11.6120  C.2        1 SUBUNIT     -0.1054
2    C        23.1730   51.9800   12.5790  C.2        1 SUBUNIT      0.1622
3    C        23.1720   51.3710   13.8250  C.2        1 SUBUNIT     -0.1115
4    C        22.3170   50.3000   14.1050  C.2        1 SUBUNIT     -0.1107
5    C        25.4210   53.0200   12.4750  C.3        1 SUBUNIT      0.1633
6    C        20.4900   49.8050   11.0860  C.2        1 SUBUNIT     -0.0479
7    C        19.9190   48.8070   11.8580  C.2        1 SUBUNIT      0.0649
8    C        20.2220   47.9930   14.0640  C.2        1 SUBUNIT      0.6576
9    O        20.0140   48.0060    8.7490  O.2        1 SUBUNIT     -0.5409
10   C        19.8330   49.2030    8.6070  C.2        1 SUBUNIT      0.6434
11   N        19.3340   49.8460    7.5390  N.am       1 SUBUNIT     -0.5750
12   C        18.8530   49.4610    6.2070  C.3        1 SUBUNIT      0.1751
13   C        20.0920   49.4540    5.3190  C.3        1 SUBUNIT     -0.0714
14   C        21.0280   48.3140    5.6190  C.3        1 SUBUNIT     -0.0984
15   C        18.1160   48.1180    6.1740  C.3        1 SUBUNIT      0.1869
16   O        17.1810   48.1140    5.0710  O.3        1 SUBUNIT     -0.5540
17   C        20.1760   50.2210    9.6700  C.3        1 SUBUNIT     -0.0403
18   C        21.4370   50.4380   11.8950  C.2        1 SUBUNIT     -0.0224
19   C        18.8570   47.8480   11.4390  C.3        1 SUBUNIT     -0.0778
20   N        20.5130   48.8760   13.0480  N.am       1 SUBUNIT     -0.2373
21   C        21.4450   49.8250   13.1340  C.2        1 SUBUNIT      0.0845
22   O        24.0020   53.0480   12.3040  O.3        1 SUBUNIT     -0.3852
23   O        20.9480   47.0560   14.3590  O.2        1 SUBUNIT     -0.5485
24   C        19.0010   48.0700   14.8830  C.2        1 SUBUNIT     -0.0398
25   C        17.7930   48.4810   14.3570  C.2        1 SUBUNIT     -0.1115
26   C        16.6830   48.5200   15.1730  C.2        1 SUBUNIT     -0.1133
27   C        16.8100   48.1290   16.4970  C.2        1 SUBUNIT      0.0107
28   Cl       15.6260   48.1510   17.4230  Cl         1 SUBUNIT     -0.1102
29   C        18.0310   47.7060   17.0020  C.2        1 SUBUNIT     -0.1133
30   C        19.1370   47.6630   16.1890  C.2        1 SUBUNIT     -0.1115
31   H        22.2729   51.9665   10.6397  H          1 SUBUNIT      0.1038
32   H        23.8417   51.7316   14.5861  H          1 SUBUNIT      0.1027
33   H        22.3322   49.8390   15.0771  H          1 SUBUNIT      0.1018
34   H        25.6867   52.8166   13.5176  H          1 SUBUNIT      0.0248
35   H        25.8691   53.9789   12.1944  H          1 SUBUNIT      0.0248
36   H        25.8758   52.2414   11.8538  H          1 SUBUNIT      0.0248
37   H        19.2995   50.8314    7.7486  H          1 SUBUNIT      0.3158
38   H        18.1008   50.1863    5.8798  H          1 SUBUNIT      0.0227
39   H        19.7747   49.3743    4.2740  H          1 SUBUNIT      0.0404
40   H        20.6345   50.3938    5.4656  H          1 SUBUNIT      0.0404
41   H        21.3816   48.3587    6.6544  H          1 SUBUNIT      0.0426
42   H        21.9040   48.3424    4.9626  H          1 SUBUNIT      0.0426
43   H        20.5304   47.3493    5.4746  H          1 SUBUNIT      0.0426
44   H        18.8290   47.2985    6.0355  H          1 SUBUNIT      0.0221
45   H        17.5625   47.9672    7.1067  H          1 SUBUNIT      0.0221
46   H        17.1804   48.9819    4.6607  H          1 SUBUNIT      0.3790
47   H        19.3225   50.9043    9.7311  H          1 SUBUNIT      0.0363
48   H        21.0541   50.7646    9.3061  H          1 SUBUNIT      0.0363
49   H        17.9465   48.3772   11.1392  H          1 SUBUNIT      0.0428
50   H        18.5972   47.1681   12.2571  H          1 SUBUNIT      0.0428
51   H        19.1888   47.2415   10.5899  H          1 SUBUNIT      0.0428
52   H        17.7180   48.7676   13.3226  H          1 SUBUNIT      0.1058
53   H        15.7345   48.8491   14.7859  H          1 SUBUNIT      0.1058
54   H        18.1170   47.4097   18.0328  H          1 SUBUNIT      0.1058
55   H        20.0849   47.3197   16.5649  H          1 SUBUNIT      0.1058
@<TRIPOS>BOND
     1    1    2 1
     2    1   18 2
     3    2    3 2
     4    2   22 1
     5    3    4 1
     6    4   21 2
     7    5   22 1
     8    6    7 2
     9    6   17 1
    10    6   18 1
    11    7   19 1
    12    7   20 1
    13    8   20 1
    14    8   23 2
    15    8   24 1
    16    9   10 2
    17   10   11 1
    18   10   17 1
    19   11   12 1
    20   12   13 1
    21   12   15 1
    22   13   14 1
    23   15   16 1
    24   18   21 1
    25   20   21 1
    26   24   25 2
    27   24   30 1
    28   25   26 1
    29   26   27 2
    30   27   28 1
    31   27   29 1
    32   29   30 2
    33    1   31 1
    34    3   32 1
    35    4   33 1
    36    5   34 1
    37    5   35 1
    38    5   36 1
    39   11   37 1
    40   12   38 1
    41   13   39 1
    42   13   40 1
    43   14   41 1
    44   14   42 1
    45   14   43 1
    46   15   44 1
    47   15   45 1
    48   16   46 1
    49   17   47 1
    50   17   48 1
    51   19   49 1
    52   19   50 1
    53   19   51 1
    54   25   52 1
    55   26   53 1
    56   29   54 1
    57   30   55 1
