@<TRIPOS>MOLECULE
3E37-ED5
 85 88 0 0 0
SMALL
SF_CHARGES


@<TRIPOS>ATOM
1    O        17.0440  -77.3730    8.6050  O.2        1 SUBUNIT     -0.5369
2    C        16.7930  -77.3680    7.4020  C.2        1 SUBUNIT      0.8672
3    O        15.7560  -78.2360    6.9230  O.3        1 SUBUNIT     -0.4302
4    C        14.8910  -78.9940    7.7630  C.3        1 SUBUNIT      0.2865
5    C        15.6230  -80.0750    8.5430  C.3        1 SUBUNIT     -0.1156
6    C        14.2790  -78.0370    8.7600  C.3        1 SUBUNIT     -0.1156
7    C        13.8700  -79.6580    6.8510  C.3        1 SUBUNIT     -0.1156
8    N        17.4020  -76.6650    6.5400  N.am       1 SUBUNIT     -0.4776
9    C        18.4950  -75.7700    6.8760  C.3        1 SUBUNIT      0.1491
10   C        17.9820  -74.3610    6.6500  C.3        1 SUBUNIT     -0.0734
11   C        17.0520  -76.6730    5.1200  C.3        1 SUBUNIT      0.1491
12   C        16.4070  -75.2970    4.9070  C.3        1 SUBUNIT     -0.0734
13   C        17.3590  -74.1500    5.2770  C.3        1 SUBUNIT     -0.0342
14   C        16.6010  -72.8410    5.4660  C.3        1 SUBUNIT      0.1572
15   N        16.3410  -72.0010    4.2810  N.pl3      1 SUBUNIT     -0.5693
16   S        14.7260  -71.7450    4.0960  S.o2       1 SUBUNIT      1.3165
17   O        14.3880  -71.4650    2.6720  O.2        1 SUBUNIT     -0.6229
18   O        14.4850  -70.5320    4.9220  O.2        1 SUBUNIT     -0.6229
19   C        13.7710  -72.9140    4.6940  C.2        1 SUBUNIT     -0.0732
20   C        13.3070  -72.7860    6.0050  C.2        1 SUBUNIT     -0.1030
21   C        12.4980  -73.7600    6.5800  C.2        1 SUBUNIT     -0.1001
22   C        12.1330  -74.8800    5.8470  C.2        1 SUBUNIT     -0.1010
23   C        12.5820  -75.0100    4.5390  C.2        1 SUBUNIT     -0.1051
24   C        13.3790  -74.0300    3.9620  C.2        1 SUBUNIT     -0.0390
25   C        13.8310  -74.2130    2.5450  C.3        1 SUBUNIT     -0.0704
26   C        17.1660  -72.2250    3.0520  C.3        1 SUBUNIT      0.1422
27   C        18.2370  -71.1160    2.9750  C.3        1 SUBUNIT      0.1298
28   N        18.7890  -71.0490    1.6040  N.pl3      1 SUBUNIT     -0.4515
29   C        20.0570  -71.6280    1.3800  C.2        1 SUBUNIT      0.1096
30   C        20.7670  -71.3190    0.2180  C.2        1 SUBUNIT     -0.1178
31   C        21.9950  -71.9240   -0.0390  C.2        1 SUBUNIT     -0.1139
32   C        20.5650  -72.5820    2.2640  C.2        1 SUBUNIT     -0.1178
33   C        21.7930  -73.1800    2.0090  C.2        1 SUBUNIT     -0.1139
34   C        22.5110  -72.8530    0.8660  C.2        1 SUBUNIT      0.0212
35   C        23.6390  -73.4400    0.6460  C.1        1 SUBUNIT      0.3262
36   N        24.6380  -74.0110    0.4590  N.1        1 SUBUNIT     -0.4737
37   C        18.5240  -69.8630    0.8450  C.3        1 SUBUNIT      0.1677
38   C        17.7780  -70.1310   -0.4260  C.2        1 SUBUNIT      0.0334
39   C        17.4070  -71.4150   -0.7860  C.2        1 SUBUNIT      0.1639
40   N        16.7770  -71.2240   -1.9710  N.2        1 SUBUNIT     -0.5049
41   C        16.7670  -69.8960   -2.2880  C.2        1 SUBUNIT      0.2724
42   N        17.3980  -69.2110   -1.3190  N.pl3      1 SUBUNIT     -0.2491
43   C        17.6120  -67.7410   -1.2710  C.3        1 SUBUNIT      0.1011
44   H        16.1120  -80.7839    7.8667  H          1 SUBUNIT      0.0529
45   H        14.9306  -80.6380    9.1775  H          1 SUBUNIT      0.0529
46   H        16.3930  -79.6398    9.1885  H          1 SUBUNIT      0.0529
47   H        15.0527  -77.5526    9.3648  H          1 SUBUNIT      0.0529
48   H        13.5989  -78.5606    9.4400  H          1 SUBUNIT      0.0529
49   H        13.7088  -77.2524    8.2518  H          1 SUBUNIT      0.0529
50   H        13.2956  -78.9099    6.2947  H          1 SUBUNIT      0.0529
51   H        13.1636  -80.2638    7.4282  H          1 SUBUNIT      0.0529
52   H        14.3608  -80.3140    6.1245  H          1 SUBUNIT      0.0529
53   H        18.7819  -75.9141    7.9229  H          1 SUBUNIT      0.0281
54   H        19.3542  -75.9773    6.2296  H          1 SUBUNIT      0.0281
55   H        17.2254  -74.1434    7.4111  H          1 SUBUNIT      0.0427
56   H        18.8215  -73.6667    6.7601  H          1 SUBUNIT      0.0427
57   H        17.9498  -76.7945    4.5050  H          1 SUBUNIT      0.0281
58   H        16.3483  -77.4835    4.9036  H          1 SUBUNIT      0.0281
59   H        16.1271  -75.1978    3.8530  H          1 SUBUNIT      0.0427
60   H        15.5102  -75.2272    5.5314  H          1 SUBUNIT      0.0427
61   H        18.0948  -74.1190    4.4666  H          1 SUBUNIT      0.0389
62   H        15.6253  -73.0821    5.9006  H          1 SUBUNIT      0.0241
63   H        17.1720  -72.2251    6.1686  H          1 SUBUNIT      0.0241
64   H        13.5790  -71.9195    6.5820  H          1 SUBUNIT      0.0988
65   H        12.1545  -73.6461    7.5933  H          1 SUBUNIT      0.0987
66   H        11.5095  -75.6385    6.2871  H          1 SUBUNIT      0.0986
67   H        12.3094  -75.8794    3.9666  H          1 SUBUNIT      0.0985
68   H        13.4935  -73.3833    1.9152  H          1 SUBUNIT      0.0382
69   H        13.4312  -75.1406    2.1223  H          1 SUBUNIT      0.0382
70   H        14.9234  -74.2589    2.4844  H          1 SUBUNIT      0.0382
71   H        17.6456  -73.2076    3.1108  H          1 SUBUNIT      0.0237
72   H        16.5198  -72.1859    2.1689  H          1 SUBUNIT      0.0237
73   H        17.7902  -70.1480    3.2247  H          1 SUBUNIT      0.0247
74   H        19.0509  -71.3342    3.6743  H          1 SUBUNIT      0.0247
75   H        20.3643  -70.6096   -0.4837  H          1 SUBUNIT      0.0999
76   H        22.5425  -71.6756   -0.9314  H          1 SUBUNIT      0.1003
77   H        20.0078  -72.8556    3.1429  H          1 SUBUNIT      0.0999
78   H        22.1905  -73.9012    2.7015  H          1 SUBUNIT      0.1003
79   H        17.9334  -69.1864    1.4715  H          1 SUBUNIT      0.0230
80   H        19.4841  -69.3944    0.6052  H          1 SUBUNIT      0.0230
81   H        17.5728  -72.3403   -0.2625  H          1 SUBUNIT      0.0741
82   H        16.3274  -69.4611   -3.1686  H          1 SUBUNIT      0.0629
83   H        17.1423  -67.3049   -0.3832  H          1 SUBUNIT      0.0312
84   H        17.1833  -67.2531   -2.1526  H          1 SUBUNIT      0.0312
85   H        18.6798  -67.5007   -1.2392  H          1 SUBUNIT      0.0312
@<TRIPOS>BOND
     1    1    2 2
     2    2    3 1
     3    2    8 1
     4    3    4 1
     5    4    5 1
     6    4    6 1
     7    4    7 1
     8    8    9 1
     9    8   11 1
    10    9   10 1
    11   10   13 1
    12   11   12 1
    13   12   13 1
    14   13   14 1
    15   14   15 1
    16   15   16 1
    17   15   26 1
    18   16   17 2
    19   16   18 2
    20   16   19 1
    21   19   20 1
    22   19   24 2
    23   20   21 2
    24   21   22 1
    25   22   23 2
    26   23   24 1
    27   24   25 1
    28   26   27 1
    29   27   28 1
    30   28   29 1
    31   28   37 1
    32   29   30 2
    33   29   32 1
    34   30   31 1
    35   31   34 2
    36   32   33 2
    37   33   34 1
    38   34   35 1
    39   35   36 3
    40   37   38 1
    41   38   39 2
    42   38   42 1
    43   39   40 1
    44   40   41 2
    45   41   42 1
    46   42   43 1
    47    5   44 1
    48    5   45 1
    49    5   46 1
    50    6   47 1
    51    6   48 1
    52    6   49 1
    53    7   50 1
    54    7   51 1
    55    7   52 1
    56    9   53 1
    57    9   54 1
    58   10   55 1
    59   10   56 1
    60   11   57 1
    61   11   58 1
    62   12   59 1
    63   12   60 1
    64   13   61 1
    65   14   62 1
    66   14   63 1
    67   20   64 1
    68   21   65 1
    69   22   66 1
    70   23   67 1
    71   25   68 1
    72   25   69 1
    73   25   70 1
    74   26   71 1
    75   26   72 1
    76   27   73 1
    77   27   74 1
    78   30   75 1
    79   31   76 1
    80   32   77 1
    81   33   78 1
    82   37   79 1
    83   37   80 1
    84   39   81 1
    85   41   82 1
    86   43   83 1
    87   43   84 1
    88   43   85 1
