@<TRIPOS>MOLECULE
CHEMBL577177
   56    59     0     0     0
SMALL
USER_CHARGES

@<TRIPOS>ATOM
      1 C1          0.3975    1.4877   -0.2697 C.3       1 <0>        -0.0454
      2 N1          0.2455    0.0304   -0.1640 N.4       1 <0>        -0.5043
      3 C2          0.8810   -0.6134   -1.3215 C.3       1 <0>        -0.0325
      4 C3          0.7227   -2.1312   -1.2114 C.3       1 <0>         0.1115
      5 N2          1.3564   -2.7733   -2.3657 N.pl3     1 <0>        -0.5770
      6 C4          2.7675   -3.1621   -2.3044 C.3       1 <0>         0.0956
      7 C5          0.6240   -3.0119   -3.5109 C.ar      1 <0>         0.6507
      8 N3         -0.6551   -2.6540   -3.5685 N.ar      1 <0>        -0.6825
      9 C6         -1.3603   -2.8833   -4.6715 C.ar      1 <0>         0.6561
     10 N4         -0.7867   -3.4705   -5.7171 N.ar      1 <0>        -0.6503
     11 C7          0.4921   -3.8283   -5.6597 C.ar      1 <0>         0.6604
     12 N5          1.1990   -3.5944   -4.5582 N.ar      1 <0>        -0.6623
     13 N6          1.0876   -4.4379   -6.7453 N.pl3     1 <0>        -0.6682
     14 C8          0.3102   -4.6907   -7.9610 C.3       1 <0>         0.1592
     15 C9         -0.3242   -6.0973   -7.9241 C.3       1 <0>        -0.0903
     16 C10        -0.2878   -6.5859   -9.3563 C.ar      1 <0>        -0.0949
     17 C11        -0.9829   -7.6136   -9.9718 C.ar      1 <0>        -0.1040
     18 C12        -0.7845   -7.8817  -11.3119 C.ar      1 <0>        -0.1132
     19 C13         0.1107   -7.1223  -12.0423 C.ar      1 <0>        -0.1158
     20 C14         0.8048   -6.0972  -11.4303 C.ar      1 <0>        -0.1017
     21 C15         0.6072   -5.8268  -10.0864 C.ar      1 <0>        -0.1005
     22 C16         1.2336   -4.7760   -9.1948 C.3       1 <0>        -0.0868
     23 N7         -2.6902   -2.5117   -4.7311 N.pl3     1 <0>        -0.6228
     24 C17        -3.3986   -2.6462   -5.9241 C.ar      1 <0>         0.2007
     25 C18        -4.7614   -2.9414   -5.9174 C.ar      1 <0>        -0.2011
     26 C19        -5.4260   -3.0664   -7.1195 C.ar      1 <0>         0.1235
     27 N8         -4.7883   -2.9106   -8.2645 N.ar      1 <0>        -0.4911
     28 C20        -3.4994   -2.6307   -8.3126 C.ar      1 <0>         0.1201
     29 C21        -2.7642   -2.4833   -7.1550 C.ar      1 <0>        -0.1680
     30 H1          1.4572    1.7419   -0.2905 H         1 <0>         0.1234
     31 H2         -0.0780    1.8370   -1.1862 H         1 <0>         0.1228
     32 H3         -0.0740    1.9654    0.5891 H         1 <0>         0.1286
     33 H4          0.6857   -0.2930    0.6844 H         1 <0>         0.4306
     34 H5          0.4055   -0.2641   -2.2380 H         1 <0>         0.1331
     35 H6          1.9407   -0.3592   -1.3422 H         1 <0>         0.1317
     36 H7          1.1982   -2.4806   -0.2949 H         1 <0>         0.1020
     37 H8         -0.3370   -2.3855   -1.1906 H         1 <0>         0.1103
     38 H9          2.8476   -4.1806   -1.9244 H         1 <0>         0.0648
     39 H10         3.2021   -3.1115   -3.3027 H         1 <0>         0.0920
     40 H11         3.3029   -2.4835   -1.6403 H         1 <0>         0.0723
     41 H12         2.0209   -4.6991   -6.7033 H         1 <0>         0.4200
     42 H13        -0.4508   -3.9226   -8.0989 H         1 <0>         0.1117
     43 H14         0.2595   -6.7587   -7.2838 H         1 <0>         0.0821
     44 H15        -1.3535   -6.0388   -7.5704 H         1 <0>         0.0802
     45 H16        -1.6821   -8.2074   -9.4019 H         1 <0>         0.1201
     46 H17        -1.3278   -8.6840  -11.7889 H         1 <0>         0.1268
     47 H18         0.2674   -7.3308  -13.0903 H         1 <0>         0.1272
     48 H19         1.5039   -5.5044  -12.0014 H         1 <0>         0.1222
     49 H20         1.2677   -3.8154   -9.7088 H         1 <0>         0.0863
     50 H21         2.2362   -5.0821   -8.8964 H         1 <0>         0.0872
     51 H22        -3.1306   -2.1573   -3.9429 H         1 <0>         0.4258
     52 H23        -5.2890   -3.0708   -4.9840 H         1 <0>         0.1371
     53 H24        -6.4815   -3.2949   -7.1238 H         1 <0>         0.1616
     54 H25        -3.0152   -2.5114   -9.2706 H         1 <0>         0.1582
     55 H26        -1.7108   -2.2494   -7.2014 H         1 <0>         0.1439
     56 H27        -0.7355   -0.2050   -0.1448 H         1 <0>         0.4326
@<TRIPOS>BOND
     1    1    2 1
     2    1   30 1
     3    1   31 1
     4    1   32 1
     5    2    3 1
     6    2   33 1
     7    2   56 1
     8    3    4 1
     9    3   34 1
    10    3   35 1
    11    4    5 1
    12    4   36 1
    13    4   37 1
    14    5    6 1
    15    5    7 1
    16    6   38 1
    17    6   39 1
    18    6   40 1
    19    7   12 ar
    20    7    8 ar
    21    8    9 ar
    22    9   10 ar
    23    9   23 1
    24   10   11 ar
    25   11   12 ar
    26   11   13 1
    27   13   14 1
    28   13   41 1
    29   14   22 1
    30   14   15 1
    31   14   42 1
    32   15   16 1
    33   15   43 1
    34   15   44 1
    35   16   21 ar
    36   16   17 ar
    37   17   18 ar
    38   17   45 1
    39   18   19 ar
    40   18   46 1
    41   19   20 ar
    42   19   47 1
    43   20   21 ar
    44   20   48 1
    45   21   22 1
    46   22   49 1
    47   22   50 1
    48   23   24 1
    49   23   51 1
    50   24   29 ar
    51   24   25 ar
    52   25   26 ar
    53   25   52 1
    54   26   27 ar
    55   26   53 1
    56   27   28 ar
    57   28   29 ar
    58   28   54 1
    59   29   55 1
@<TRIPOS>MOLECULE
CHEMBL225492
   48    51     0     0     0
SMALL
USER_CHARGES

@<TRIPOS>ATOM
      1 C1         -0.0168    1.3873    0.0097 C.ar      1 <0>        -0.0757
      2 C2          1.1390    2.1086    0.0025 C.ar      1 <0>        -0.1236
      3 C3          2.3757    1.4452   -0.0129 C.ar      1 <0>        -0.0782
      4 C4          3.5946    2.1434   -0.0202 C.ar      1 <0>         0.1522
      5 N1          4.7275    1.4811   -0.0342 N.ar      1 <0>        -0.4797
      6 C5          4.7842    0.1565   -0.0420 C.ar      1 <0>         0.0812
      7 C6          3.6587   -0.6114   -0.0359 C.ar      1 <0>        -0.1619
      8 C7          2.4070    0.0268   -0.0209 C.ar      1 <0>        -0.0583
      9 C8          1.1970   -0.6939   -0.0132 C.ar      1 <0>         0.2040
     10 C9          0.0021   -0.0041    0.0020 C.ar      1 <0>        -0.1775
     11 N2          1.2064   -2.0873   -0.0212 N.pl3     1 <0>        -0.7506
     12 C10        -0.0573   -2.8284   -0.0131 C.3       1 <0>         0.1349
     13 C11        -0.5452   -2.9916    1.4293 C.3       1 <0>        -0.1538
     14 C12         0.4734   -3.8262    2.2110 C.3       1 <0>        -0.1411
     15 C13         0.6683   -5.1718    1.5090 C.3       1 <0>        -0.0158
     16 N3          1.1604   -4.9491    0.1442 N.4       1 <0>        -0.3838
     17 C14         0.1572   -4.2111   -0.6327 C.3       1 <0>        -0.0148
     18 C15         1.4198   -6.2442   -0.4987 C.3       1 <0>         0.0434
     19 C16         2.5423   -6.9463    0.2210 C.ar      1 <0>        -0.1619
     20 C17         3.8511   -6.7428   -0.1750 C.ar      1 <0>        -0.0802
     21 C18         4.8811   -7.3865    0.4846 C.ar      1 <0>        -0.1053
     22 C19         4.6021   -8.2347    1.5414 C.ar      1 <0>        -0.0056
     23 C20         3.2921   -8.4380    1.9373 C.ar      1 <0>        -0.1061
     24 C21         2.2634   -7.7894    1.2805 C.ar      1 <0>        -0.0823
     25 Cl1         5.8952   -9.0440    2.3701 Cl        1 <0>        -0.0354
     26 H1         -0.9647    1.9047    0.0261 H         1 <0>         0.1317
     27 H2          1.1037    3.1880    0.0083 H         1 <0>         0.1366
     28 H3          3.5994    3.2234   -0.0147 H         1 <0>         0.1699
     29 H4          5.7497   -0.3275   -0.0539 H         1 <0>         0.1538
     30 H5          3.7273   -1.6892   -0.0428 H         1 <0>         0.1212
     31 H6         -0.9295   -0.5504    0.0084 H         1 <0>         0.1262
     32 H7          2.0497   -2.5666   -0.0322 H         1 <0>         0.3880
     33 H8         -0.8032   -2.2825   -0.5907 H         1 <0>         0.1276
     34 H9         -0.6454   -2.0104    1.8934 H         1 <0>         0.1000
     35 H10        -1.5104   -3.4979    1.4325 H         1 <0>         0.0933
     36 H11         1.4247   -3.2955    2.2512 H         1 <0>         0.0862
     37 H12         0.1064   -3.9937    3.2236 H         1 <0>         0.1142
     38 H13         1.3928   -5.7686    2.0631 H         1 <0>         0.1322
     39 H14        -0.2834   -5.7018    1.4697 H         1 <0>         0.1335
     40 H15        -0.7836   -4.7615   -0.6264 H         1 <0>         0.1476
     41 H16         0.5045   -4.0985   -1.6597 H         1 <0>         0.1387
     42 H17         0.5202   -6.8581   -0.4552 H         1 <0>         0.1414
     43 H18         1.7000   -6.0834   -1.5397 H         1 <0>         0.1404
     44 H19         4.0687   -6.0809   -1.0002 H         1 <0>         0.1409
     45 H20         5.9035   -7.2276    0.1750 H         1 <0>         0.1481
     46 H21         3.0736   -9.1003    2.7619 H         1 <0>         0.1481
     47 H22         1.2411   -7.9443    1.5924 H         1 <0>         0.1417
     48 H23         2.0162   -4.4158    0.1792 H         1 <0>         0.4151
@<TRIPOS>BOND
     1    1   10 ar
     2    1    2 ar
     3    1   26 1
     4    2    3 ar
     5    2   27 1
     6    3    8 ar
     7    3    4 ar
     8    4    5 ar
     9    4   28 1
    10    5    6 ar
    11    6    7 ar
    12    6   29 1
    13    7    8 ar
    14    7   30 1
    15    8    9 ar
    16    9   10 ar
    17    9   11 1
    18   10   31 1
    19   11   12 1
    20   11   32 1
    21   12   17 1
    22   12   13 1
    23   12   33 1
    24   13   14 1
    25   13   34 1
    26   13   35 1
    27   14   15 1
    28   14   36 1
    29   14   37 1
    30   15   16 1
    31   15   38 1
    32   15   39 1
    33   16   17 1
    34   16   18 1
    35   16   48 1
    36   17   40 1
    37   17   41 1
    38   18   19 1
    39   18   42 1
    40   18   43 1
    41   19   24 ar
    42   19   20 ar
    43   20   21 ar
    44   20   44 1
    45   21   22 ar
    46   21   45 1
    47   22   23 ar
    48   22   25 1
    49   23   24 ar
    50   23   46 1
    51   24   47 1
@<TRIPOS>MOLECULE
CHEMBL225492__1
   49    52     0     0     0
SMALL
USER_CHARGES

@<TRIPOS>ATOM
      1 C1         -0.0168    1.3873    0.0097 C.ar      1 <0>        -0.0421
      2 C2          1.1390    2.1086    0.0025 C.ar      1 <0>        -0.1050
      3 C3          2.3757    1.4452   -0.0129 C.ar      1 <0>        -0.0674
      4 C4          3.5946    2.1434   -0.0202 C.ar      1 <0>         0.2200
      5 N1          4.7275    1.4811   -0.0342 N.ar      1 <0>        -0.4377
      6 C5          4.7842    0.1565   -0.0425 C.ar      1 <0>         0.0502
      7 C6          3.6587   -0.6114   -0.0363 C.ar      1 <0>        -0.0799
      8 C7          2.4070    0.0268   -0.0209 C.ar      1 <0>        -0.0416
      9 C8          1.1970   -0.6939   -0.0132 C.ar      1 <0>         0.2140
     10 C9          0.0021   -0.0041    0.0020 C.ar      1 <0>        -0.1323
     11 N2          1.2064   -2.0873   -0.0212 N.pl3     1 <0>        -0.7436
     12 C10        -0.0573   -2.8284   -0.0131 C.3       1 <0>         0.1298
     13 C11        -0.5452   -2.9916    1.4293 C.3       1 <0>        -0.1558
     14 C12         0.4734   -3.8262    2.2110 C.3       1 <0>        -0.1404
     15 C13         0.6683   -5.1718    1.5090 C.3       1 <0>        -0.0196
     16 N3          1.1604   -4.9491    0.1442 N.4       1 <0>        -0.3835
     17 C14         0.1572   -4.2111   -0.6327 C.3       1 <0>        -0.0163
     18 C15         1.4198   -6.2442   -0.4987 C.3       1 <0>         0.0432
     19 C16         2.5423   -6.9463    0.2210 C.ar      1 <0>        -0.1658
     20 C17         3.8511   -6.7428   -0.1750 C.ar      1 <0>        -0.0826
     21 C18         4.8811   -7.3865    0.4846 C.ar      1 <0>        -0.1065
     22 C19         4.6021   -8.2347    1.5414 C.ar      1 <0>        -0.0042
     23 C20         3.2921   -8.4380    1.9373 C.ar      1 <0>        -0.1040
     24 C21         2.2634   -7.7894    1.2805 C.ar      1 <0>        -0.0812
     25 Cl1         5.8952   -9.0440    2.3701 Cl        1 <0>        -0.0295
     26 H1         -0.9647    1.9047    0.0261 H         1 <0>         0.1564
     27 H2          1.1037    3.1880    0.0083 H         1 <0>         0.1593
     28 H3          3.5994    3.2234   -0.0147 H         1 <0>         0.2210
     29 H4          5.7497   -0.3275   -0.0547 H         1 <0>         0.2028
     30 H5          3.7273   -1.6892   -0.0436 H         1 <0>         0.1639
     31 H6         -0.9295   -0.5504    0.0084 H         1 <0>         0.1488
     32 H7          2.0497   -2.5666   -0.0322 H         1 <0>         0.3926
     33 H8         -0.8032   -2.2825   -0.5907 H         1 <0>         0.1334
     34 H9         -0.6454   -2.0104    1.8934 H         1 <0>         0.0996
     35 H10        -1.5104   -3.4979    1.4325 H         1 <0>         0.1023
     36 H11         1.4247   -3.2955    2.2512 H         1 <0>         0.0824
     37 H12         0.1064   -3.9937    3.2236 H         1 <0>         0.1189
     38 H13         1.3928   -5.7686    2.0631 H         1 <0>         0.1361
     39 H14        -0.2834   -5.7018    1.4697 H         1 <0>         0.1378
     40 H15        -0.7836   -4.7615   -0.6264 H         1 <0>         0.1541
     41 H16         0.5045   -4.0985   -1.6597 H         1 <0>         0.1416
     42 H17         0.5202   -6.8581   -0.4552 H         1 <0>         0.1442
     43 H18         1.7000   -6.0834   -1.5397 H         1 <0>         0.1416
     44 H19         4.0687   -6.0809   -1.0002 H         1 <0>         0.1387
     45 H20         5.9035   -7.2276    0.1750 H         1 <0>         0.1481
     46 H21         3.0736   -9.1003    2.7619 H         1 <0>         0.1502
     47 H22         1.2411   -7.9443    1.5924 H         1 <0>         0.1427
     48 H23         2.0162   -4.4158    0.1792 H         1 <0>         0.4100
     49 H24         5.5583    1.9818   -0.0391 H         1 <0>         0.4552
@<TRIPOS>BOND
     1    1   10 ar
     2    1    2 ar
     3    1   26 1
     4    2    3 ar
     5    2   27 1
     6    3    8 ar
     7    3    4 ar
     8    4    5 ar
     9    4   28 1
    10    5    6 ar
    11    5   49 1
    12    6    7 ar
    13    6   29 1
    14    7    8 ar
    15    7   30 1
    16    8    9 ar
    17    9   10 ar
    18    9   11 1
    19   10   31 1
    20   11   12 1
    21   11   32 1
    22   12   17 1
    23   12   13 1
    24   12   33 1
    25   13   14 1
    26   13   34 1
    27   13   35 1
    28   14   15 1
    29   14   36 1
    30   14   37 1
    31   15   16 1
    32   15   38 1
    33   15   39 1
    34   16   17 1
    35   16   18 1
    36   16   48 1
    37   17   40 1
    38   17   41 1
    39   18   19 1
    40   18   42 1
    41   18   43 1
    42   19   24 ar
    43   19   20 ar
    44   20   21 ar
    45   20   44 1
    46   21   22 ar
    47   21   45 1
    48   22   23 ar
    49   22   25 1
    50   23   24 ar
    51   23   46 1
    52   24   47 1
@<TRIPOS>MOLECULE
CHEMBL225492__2
   48    51     0     0     0
SMALL
USER_CHARGES

@<TRIPOS>ATOM
      1 C1         -0.0168    1.3873    0.0097 C.ar      1 <0>        -0.0758
      2 C2          1.1390    2.1086    0.0025 C.ar      1 <0>        -0.1268
      3 C3          2.3757    1.4452   -0.0129 C.ar      1 <0>        -0.0765
      4 C4          3.5946    2.1434   -0.0202 C.ar      1 <0>         0.1477
      5 N1          4.7275    1.4811   -0.0342 N.ar      1 <0>        -0.4783
      6 C5          4.7842    0.1565   -0.0420 C.ar      1 <0>         0.0788
      7 C6          3.6587   -0.6114   -0.0359 C.ar      1 <0>        -0.1567
      8 C7          2.4070    0.0268   -0.0209 C.ar      1 <0>        -0.0597
      9 C8          1.1970   -0.6939   -0.0132 C.ar      1 <0>         0.2095
     10 C9          0.0021   -0.0041    0.0020 C.ar      1 <0>        -0.1878
     11 N2          1.2064   -2.0873   -0.0212 N.pl3     1 <0>        -0.7364
     12 C10        -0.0573   -2.8284   -0.0131 C.3       1 <0>         0.1405
     13 C11        -0.5733   -2.9752   -1.4475 C.3       1 <0>        -0.1569
     14 C12        -1.8521   -3.8177   -1.4358 C.3       1 <0>        -0.1414
     15 C13        -1.5591   -5.1706   -0.7836 C.3       1 <0>        -0.0168
     16 N3         -1.0951   -4.9637    0.5935 N.4       1 <0>        -0.3771
     17 C14         0.1691   -4.2180    0.5864 C.3       1 <0>        -0.0180
     18 C15        -0.8898   -6.2665    1.2404 C.3       1 <0>         0.0454
     19 C16        -2.2120   -6.9784    1.3671 C.ar      1 <0>        -0.1611
     20 C17        -2.9903   -6.7947    2.4948 C.ar      1 <0>        -0.0786
     21 C18        -4.2030   -7.4473    2.6116 C.ar      1 <0>        -0.1057
     22 C19        -4.6381   -8.2845    1.5997 C.ar      1 <0>        -0.0057
     23 C20        -3.8588   -8.4679    0.4713 C.ar      1 <0>        -0.1064
     24 C21        -2.6488   -7.8103    0.3531 C.ar      1 <0>        -0.0828
     25 Cl1        -6.1610   -9.1049    1.7459 Cl        1 <0>        -0.0359
     26 H1         -0.9647    1.9047    0.0261 H         1 <0>         0.1297
     27 H2          1.1037    3.1880    0.0083 H         1 <0>         0.1358
     28 H3          3.5994    3.2234   -0.0147 H         1 <0>         0.1692
     29 H4          5.7497   -0.3275   -0.0539 H         1 <0>         0.1551
     30 H5          3.7273   -1.6892   -0.0428 H         1 <0>         0.1281
     31 H6         -0.9295   -0.5504    0.0084 H         1 <0>         0.1216
     32 H7          2.0497   -2.5666   -0.0322 H         1 <0>         0.4057
     33 H8         -0.7917   -2.2892    0.5852 H         1 <0>         0.1021
     34 H9         -0.7898   -1.9896   -1.8595 H         1 <0>         0.0996
     35 H10         0.1828   -3.4688   -2.0581 H         1 <0>         0.0866
     36 H11        -2.6243   -3.2992   -0.8675 H         1 <0>         0.0898
     37 H12        -2.1947   -3.9733   -2.4587 H         1 <0>         0.1174
     38 H13        -2.4675   -5.7730   -0.7738 H         1 <0>         0.1346
     39 H14        -0.7870   -5.6882   -1.3528 H         1 <0>         0.1312
     40 H15         0.9044   -4.7560   -0.0120 H         1 <0>         0.1351
     41 H16         0.5367   -4.1172    1.6076 H         1 <0>         0.1380
     42 H17        -0.2095   -6.8683    0.6377 H         1 <0>         0.1392
     43 H18        -0.4614   -6.1167    2.2314 H         1 <0>         0.1407
     44 H19        -2.6504   -6.1415    3.2848 H         1 <0>         0.1417
     45 H20        -4.8108   -7.3041    3.4928 H         1 <0>         0.1479
     46 H21        -4.1977   -9.1215   -0.3188 H         1 <0>         0.1479
     47 H22        -2.0426   -7.9497   -0.5297 H         1 <0>         0.1413
     48 H23        -1.7896   -4.4415    1.1065 H         1 <0>         0.4240
@<TRIPOS>BOND
     1    1   10 ar
     2    1    2 ar
     3    1   26 1
     4    2    3 ar
     5    2   27 1
     6    3    8 ar
     7    3    4 ar
     8    4    5 ar
     9    4   28 1
    10    5    6 ar
    11    6    7 ar
    12    6   29 1
    13    7    8 ar
    14    7   30 1
    15    8    9 ar
    16    9   10 ar
    17    9   11 1
    18   10   31 1
    19   11   12 1
    20   11   32 1
    21   12   17 1
    22   12   13 1
    23   12   33 1
    24   13   14 1
    25   13   34 1
    26   13   35 1
    27   14   15 1
    28   14   36 1
    29   14   37 1
    30   15   16 1
    31   15   38 1
    32   15   39 1
    33   16   17 1
    34   16   18 1
    35   16   48 1
    36   17   40 1
    37   17   41 1
    38   18   19 1
    39   18   42 1
    40   18   43 1
    41   19   24 ar
    42   19   20 ar
    43   20   21 ar
    44   20   44 1
    45   21   22 ar
    46   21   45 1
    47   22   23 ar
    48   22   25 1
    49   23   24 ar
    50   23   46 1
    51   24   47 1
@<TRIPOS>MOLECULE
CHEMBL225492__3
   49    52     0     0     0
SMALL
USER_CHARGES

@<TRIPOS>ATOM
      1 C1         -0.0168    1.3873    0.0097 C.ar      1 <0>        -0.0414
      2 C2          1.1390    2.1086    0.0025 C.ar      1 <0>        -0.1101
      3 C3          2.3757    1.4452   -0.0129 C.ar      1 <0>        -0.0648
      4 C4          3.5946    2.1434   -0.0202 C.ar      1 <0>         0.2149
      5 N1          4.7275    1.4811   -0.0342 N.ar      1 <0>        -0.4355
      6 C5          4.7842    0.1565   -0.0425 C.ar      1 <0>         0.0486
      7 C6          3.6587   -0.6114   -0.0363 C.ar      1 <0>        -0.0746
      8 C7          2.4070    0.0268   -0.0209 C.ar      1 <0>        -0.0419
      9 C8          1.1970   -0.6939   -0.0132 C.ar      1 <0>         0.2186
     10 C9          0.0021   -0.0041    0.0020 C.ar      1 <0>        -0.1436
     11 N2          1.2064   -2.0873   -0.0212 N.pl3     1 <0>        -0.7279
     12 C10        -0.0573   -2.8284   -0.0131 C.3       1 <0>         0.1332
     13 C11        -0.5733   -2.9752   -1.4475 C.3       1 <0>        -0.1566
     14 C12        -1.8521   -3.8177   -1.4358 C.3       1 <0>        -0.1425
     15 C13        -1.5591   -5.1706   -0.7836 C.3       1 <0>        -0.0193
     16 N3         -1.0951   -4.9637    0.5935 N.4       1 <0>        -0.3779
     17 C14         0.1691   -4.2180    0.5864 C.3       1 <0>        -0.0178
     18 C15        -0.8898   -6.2665    1.2404 C.3       1 <0>         0.0470
     19 C16        -2.2120   -6.9784    1.3671 C.ar      1 <0>        -0.1669
     20 C17        -2.9903   -6.7947    2.4948 C.ar      1 <0>        -0.0784
     21 C18        -4.2030   -7.4473    2.6116 C.ar      1 <0>        -0.1053
     22 C19        -4.6381   -8.2845    1.5997 C.ar      1 <0>        -0.0033
     23 C20        -3.8588   -8.4679    0.4713 C.ar      1 <0>        -0.1055
     24 C21        -2.6488   -7.8103    0.3531 C.ar      1 <0>        -0.0827
     25 Cl1        -6.1610   -9.1049    1.7459 Cl        1 <0>        -0.0301
     26 H1         -0.9647    1.9047    0.0261 H         1 <0>         0.1543
     27 H2          1.1037    3.1880    0.0083 H         1 <0>         0.1583
     28 H3          3.5994    3.2234   -0.0147 H         1 <0>         0.2203
     29 H4          5.7497   -0.3275   -0.0547 H         1 <0>         0.2038
     30 H5          3.7273   -1.6892   -0.0436 H         1 <0>         0.1704
     31 H6         -0.9295   -0.5504    0.0084 H         1 <0>         0.1441
     32 H7          2.0497   -2.5666   -0.0322 H         1 <0>         0.4102
     33 H8         -0.7917   -2.2892    0.5852 H         1 <0>         0.1079
     34 H9         -0.7898   -1.9896   -1.8595 H         1 <0>         0.0989
     35 H10         0.1828   -3.4688   -2.0581 H         1 <0>         0.0904
     36 H11        -2.6243   -3.2992   -0.8675 H         1 <0>         0.0922
     37 H12        -2.1947   -3.9733   -2.4587 H         1 <0>         0.1220
     38 H13        -2.4675   -5.7730   -0.7738 H         1 <0>         0.1393
     39 H14        -0.7870   -5.6882   -1.3528 H         1 <0>         0.1333
     40 H15         0.9044   -4.7560   -0.0120 H         1 <0>         0.1374
     41 H16         0.5367   -4.1172    1.6076 H         1 <0>         0.1395
     42 H17        -0.2095   -6.8683    0.6377 H         1 <0>         0.1401
     43 H18        -0.4614   -6.1167    2.2314 H         1 <0>         0.1411
     44 H19        -2.6504   -6.1415    3.2848 H         1 <0>         0.1408
     45 H20        -4.8108   -7.3041    3.4928 H         1 <0>         0.1491
     46 H21        -4.1977   -9.1215   -0.3188 H         1 <0>         0.1494
     47 H22        -2.0426   -7.9497   -0.5297 H         1 <0>         0.1410
     48 H23        -1.7896   -4.4415    1.1065 H         1 <0>         0.4249
     49 H24         5.5583    1.9818   -0.0391 H         1 <0>         0.4548
@<TRIPOS>BOND
     1    1   10 ar
     2    1    2 ar
     3    1   26 1
     4    2    3 ar
     5    2   27 1
     6    3    8 ar
     7    3    4 ar
     8    4    5 ar
     9    4   28 1
    10    5    6 ar
    11    5   49 1
    12    6    7 ar
    13    6   29 1
    14    7    8 ar
    15    7   30 1
    16    8    9 ar
    17    9   10 ar
    18    9   11 1
    19   10   31 1
    20   11   12 1
    21   11   32 1
    22   12   17 1
    23   12   13 1
    24   12   33 1
    25   13   14 1
    26   13   34 1
    27   13   35 1
    28   14   15 1
    29   14   36 1
    30   14   37 1
    31   15   16 1
    32   15   38 1
    33   15   39 1
    34   16   17 1
    35   16   18 1
    36   16   48 1
    37   17   40 1
    38   17   41 1
    39   18   19 1
    40   18   42 1
    41   18   43 1
    42   19   24 ar
    43   19   20 ar
    44   20   21 ar
    45   20   44 1
    46   21   22 ar
    47   21   45 1
    48   22   23 ar
    49   22   25 1
    50   23   24 ar
    51   23   46 1
    52   24   47 1
@<TRIPOS>MOLECULE
CHEMBL384073
   43    46     0     0     0
SMALL
USER_CHARGES

@<TRIPOS>ATOM
      1 C1          0.6705    1.5360   -1.4687 C.3       1 <0>        -0.1363
      2 C2          0.5887    0.1936   -0.7887 C.2       1 <0>         0.2030
      3 C3         -0.5584   -0.1733   -0.1803 C.2       1 <0>        -0.2817
      4 C4         -0.5981   -1.5312    0.4908 C.3       1 <0>         0.2466
      5 N1          0.6273   -2.3450    0.4235 N.am      1 <0>        -0.7115
      6 C5          1.6975   -1.8409   -0.2222 C.2       1 <0>         0.7063
      7 O1          2.7138   -2.5049   -0.2837 O.2       1 <0>        -0.5636
      8 N2          1.6757   -0.6346   -0.8031 N.am      1 <0>        -0.6505
      9 C6         -1.7175   -2.3248   -0.1324 C.ar      1 <0>        -0.1259
     10 C7         -1.5397   -2.9157   -1.3695 C.ar      1 <0>        -0.0679
     11 C8         -2.5653   -3.6441   -1.9417 C.ar      1 <0>        -0.1528
     12 C9         -3.7713   -3.7819   -1.2755 C.ar      1 <0>         0.1077
     13 C10        -3.9482   -3.1896   -0.0366 C.ar      1 <0>        -0.1493
     14 C11        -2.9193   -2.4661    0.5361 C.ar      1 <0>        -0.0714
     15 F1         -4.7748   -4.4933   -1.8342 F         1 <0>        -0.1368
     16 C12        -1.6875    0.6824   -0.1690 C.2       1 <0>         0.6004
     17 O2         -1.9688    1.3060    0.8383 O.2       1 <0>        -0.5113
     18 N3         -2.4503    0.8062   -1.2732 N.am      1 <0>        -0.6622
     19 C13        -3.5018    1.7310   -1.2979 C.ar      1 <0>         0.1075
     20 C14        -4.2556    1.9560   -0.1452 C.ar      1 <0>        -0.0617
     21 C15        -5.2844    2.8528   -0.1482 C.ar      1 <0>        -0.1256
     22 C16        -5.5936    3.5571   -1.3095 C.ar      1 <0>         0.1210
     23 C17        -4.8394    3.3383   -2.4779 C.ar      1 <0>        -0.1644
     24 C18        -3.7838    2.4195   -2.4606 C.ar      1 <0>        -0.0661
     25 C19        -5.4040    4.2126   -3.5010 C.2       1 <0>         0.0753
     26 N4         -6.3911    4.8700   -2.9626 N.2       1 <0>        -0.2463
     27 N5         -6.5412    4.4988   -1.6225 N.pl3     1 <0>        -0.5100
     28 H1         -7.2081    4.8507   -1.0123 H         1 <0>         0.4409
     29 H2          1.6606    1.6614   -1.9070 H         1 <0>         0.0840
     30 H3         -0.0840    1.5924   -2.2533 H         1 <0>         0.0940
     31 H4          0.4942    2.3250   -0.7376 H         1 <0>         0.0963
     32 H5         -0.8434   -1.3795    1.5419 H         1 <0>         0.0941
     33 H6          0.6636   -3.2229    0.8345 H         1 <0>         0.4338
     34 H7          2.4776   -0.3298   -1.2559 H         1 <0>         0.4277
     35 H8         -0.5991   -2.8078   -1.8891 H         1 <0>         0.1271
     36 H9         -2.4264   -4.1053   -2.9083 H         1 <0>         0.1373
     37 H10        -4.8885   -3.2961    0.4838 H         1 <0>         0.1385
     38 H11        -3.0555   -2.0078    1.5044 H         1 <0>         0.1355
     39 H12        -2.2710    0.2548   -2.0509 H         1 <0>         0.4106
     40 H13        -4.0225    1.4140    0.7594 H         1 <0>         0.1461
     41 H14        -5.8598    3.0163    0.7510 H         1 <0>         0.1306
     42 H15        -3.1969    2.2478   -3.3509 H         1 <0>         0.1328
     43 H16        -5.0638    4.2993   -4.5223 H         1 <0>         0.1980
@<TRIPOS>BOND
     1    1    2 1
     2    1   29 1
     3    1   30 1
     4    1   31 1
     5    2    8 1
     6    2    3 2
     7    3    4 1
     8    3   16 1
     9    4    5 1
    10    4    9 1
    11    4   32 1
    12    5    6 am
    13    5   33 1
    14    6    7 2
    15    6    8 am
    16    8   34 1
    17    9   14 ar
    18    9   10 ar
    19   10   11 ar
    20   10   35 1
    21   11   12 ar
    22   11   36 1
    23   12   13 ar
    24   12   15 1
    25   13   14 ar
    26   13   37 1
    27   14   38 1
    28   16   17 2
    29   16   18 am
    30   18   19 1
    31   18   39 1
    32   19   24 ar
    33   19   20 ar
    34   20   21 ar
    35   20   40 1
    36   21   22 ar
    37   21   41 1
    38   22   27 1
    39   22   23 ar
    40   23   24 ar
    41   23   25 1
    42   24   42 1
    43   25   26 2
    44   25   43 1
    45   26   27 1
    46   27   28 1
@<TRIPOS>MOLECULE
CHEMBL384073__1
   43    46     0     0     0
SMALL
USER_CHARGES

@<TRIPOS>ATOM
      1 C1         -0.6948    0.7916   -0.8683 C.3       1 <0>        -0.1368
      2 C2         -0.4867   -0.5338   -0.1820 C.2       1 <0>         0.1991
      3 C3         -1.5518   -1.2021    0.3075 C.2       1 <0>        -0.2780
      4 C4         -1.2982   -2.5312    0.9896 C.3       1 <0>         0.2470
      5 N1          0.0999   -2.9878    1.0628 N.am      1 <0>        -0.7116
      6 C5          1.0586   -2.2072    0.5261 C.2       1 <0>         0.7062
      7 O1          2.2158   -2.5753    0.5810 O.2       1 <0>        -0.5636
      8 N2          0.7770   -1.0420   -0.0706 N.am      1 <0>        -0.6503
      9 C6         -1.8315   -2.4407    2.3962 C.ar      1 <0>        -0.1244
     10 C7         -1.0650   -1.8603    3.3895 C.ar      1 <0>        -0.0683
     11 C8         -1.5532   -1.7764    4.6796 C.ar      1 <0>        -0.1531
     12 C9         -2.8107   -2.2738    4.9771 C.ar      1 <0>         0.1070
     13 C10        -3.5775   -2.8548    3.9814 C.ar      1 <0>        -0.1487
     14 C11        -3.0893   -2.9329    2.6909 C.ar      1 <0>        -0.0702
     15 F1         -3.2888   -2.1927    6.2381 F         1 <0>        -0.1370
     16 C12        -2.8628   -0.6786    0.1882 C.2       1 <0>         0.5998
     17 O2         -3.6579   -1.1962   -0.5750 O.2       1 <0>        -0.5115
     18 N3         -3.2299    0.3923    0.9196 N.am      1 <0>        -0.6642
     19 C13        -4.5521    0.8520    0.8732 C.ar      1 <0>         0.1064
     20 C14        -5.2403    0.8654   -0.3408 C.ar      1 <0>        -0.0596
     21 C15        -6.5291    1.3094   -0.4075 C.ar      1 <0>        -0.1263
     22 C16        -7.1743    1.7561    0.7434 C.ar      1 <0>         0.1221
     23 C17        -6.4897    1.7466    1.9735 C.ar      1 <0>        -0.1647
     24 C18        -5.1698    1.2843    2.0295 C.ar      1 <0>        -0.0607
     25 C19        -7.4234    2.2663    2.9674 C.2       1 <0>         0.0761
     26 N4         -8.5395    2.5464    2.3571 N.2       1 <0>        -0.2462
     27 N5         -8.4299    2.2491    0.9949 N.pl3     1 <0>        -0.5100
     28 H1         -9.1292    2.3718    0.3339 H         1 <0>         0.4410
     29 H2          0.2663    1.1829   -1.2019 H         1 <0>         0.0848
     30 H3         -1.3504    0.6563   -1.7285 H         1 <0>         0.0961
     31 H4         -1.1509    1.4942   -0.1708 H         1 <0>         0.0935
     32 H5         -1.8735   -3.2936    0.4644 H         1 <0>         0.0950
     33 H6          0.3255   -3.8302    1.4875 H         1 <0>         0.4341
     34 H7          1.5116   -0.5279   -0.4408 H         1 <0>         0.4276
     35 H8         -0.0840   -1.4727    3.1573 H         1 <0>         0.1269
     36 H9         -0.9541   -1.3233    5.4556 H         1 <0>         0.1369
     37 H10        -4.5584   -3.2434    4.2124 H         1 <0>         0.1380
     38 H11        -3.6891   -3.3821    1.9131 H         1 <0>         0.1349
     39 H12        -2.5785    0.8446    1.4780 H         1 <0>         0.4096
     40 H13        -4.7473    0.5207   -1.2378 H         1 <0>         0.1423
     41 H14        -7.0493    1.3148   -1.3539 H         1 <0>         0.1307
     42 H15        -4.6378    1.2693    2.9692 H         1 <0>         0.1320
     43 H16        -7.2246    2.3953    4.0211 H         1 <0>         0.1979
@<TRIPOS>BOND
     1    1    2 1
     2    1   29 1
     3    1   30 1
     4    1   31 1
     5    2    8 1
     6    2    3 2
     7    3    4 1
     8    3   16 1
     9    4    5 1
    10    4    9 1
    11    4   32 1
    12    5    6 am
    13    5   33 1
    14    6    7 2
    15    6    8 am
    16    8   34 1
    17    9   14 ar
    18    9   10 ar
    19   10   11 ar
    20   10   35 1
    21   11   12 ar
    22   11   36 1
    23   12   13 ar
    24   12   15 1
    25   13   14 ar
    26   13   37 1
    27   14   38 1
    28   16   17 2
    29   16   18 am
    30   18   19 1
    31   18   39 1
    32   19   24 ar
    33   19   20 ar
    34   20   21 ar
    35   20   40 1
    36   21   22 ar
    37   21   41 1
    38   22   27 1
    39   22   23 ar
    40   23   24 ar
    41   23   25 1
    42   24   42 1
    43   25   26 2
    44   25   43 1
    45   26   27 1
    46   27   28 1
@<TRIPOS>MOLECULE
CHEMBL584291
   53    57     0     0     0
SMALL
USER_CHARGES

@<TRIPOS>ATOM
      1 C1          1.3598    1.8623    1.0833 C.ar      1 <0>        -0.1134
      2 C2          2.6862    2.1644    1.3303 C.ar      1 <0>        -0.1132
      3 C3          3.6561    1.1954    1.1640 C.ar      1 <0>        -0.1021
      4 C4          3.3047   -0.0788    0.7503 C.ar      1 <0>        -0.0977
      5 C5          1.9787   -0.3807    0.5034 C.ar      1 <0>        -0.0984
      6 C6          1.0075    0.5923    0.6708 C.ar      1 <0>        -0.1005
      7 C7          1.8554   -1.8250    0.0673 C.3       1 <0>        -0.0793
      8 C8          3.2819   -2.2454   -0.3458 C.3       1 <0>         0.0909
      9 C9          4.1632   -1.2995    0.4973 C.3       1 <0>        -0.0926
     10 O1          3.5288   -3.6104   -0.0024 O.3       1 <0>        -0.2627
     11 C10         4.2974   -4.3286   -0.8534 C.ar      1 <0>         0.6166
     12 N1          4.8667   -3.7346   -1.8953 N.ar      1 <0>        -0.6572
     13 C11         5.6225   -4.4394   -2.7318 C.ar      1 <0>         0.6616
     14 N2          5.8081   -5.7391   -2.5247 N.ar      1 <0>        -0.6448
     15 C12         5.2378   -6.3330   -1.4815 C.ar      1 <0>         0.6537
     16 N3          4.4862   -5.6254   -0.6430 N.ar      1 <0>        -0.6260
     17 N4          5.4297   -7.6825   -1.2655 N.pl3     1 <0>        -0.5909
     18 C13         6.1610   -8.5079   -2.2392 C.3       1 <0>         0.0957
     19 C14         7.2369   -9.3024   -1.4915 C.3       1 <0>        -0.0234
     20 N5          6.6134  -10.0619   -0.4004 N.4       1 <0>        -0.5060
     21 C15         6.0442   -9.1390    0.5897 C.3       1 <0>        -0.0216
     22 C16         4.9142   -8.3352   -0.0521 C.3       1 <0>         0.1013
     23 N6          6.2147   -3.8207   -3.8166 N.pl3     1 <0>        -0.6085
     24 C17         7.1156   -4.5246   -4.6142 C.ar      1 <0>         0.2036
     25 C18         7.6100   -5.7647   -4.2115 C.ar      1 <0>        -0.2184
     26 C19         8.4997   -6.4291   -5.0295 C.ar      1 <0>         0.1152
     27 N7          8.8829   -5.9054   -6.1788 N.ar      1 <0>        -0.4992
     28 C20         8.4378   -4.7347   -6.5948 C.ar      1 <0>         0.1314
     29 C21         7.5412   -4.0096   -5.8380 C.ar      1 <0>        -0.2047
     30 H1          0.5995    2.6176    1.2172 H         1 <0>         0.1291
     31 H2          2.9635    3.1571    1.6525 H         1 <0>         0.1287
     32 H3          4.6920    1.4322    1.3567 H         1 <0>         0.1226
     33 H4         -0.0289    0.3570    0.4785 H         1 <0>         0.1243
     34 H5          1.5043   -2.4413    0.8949 H         1 <0>         0.0977
     35 H6          1.1762   -1.9072   -0.7812 H         1 <0>         0.0887
     36 H7          3.4422   -2.0776   -1.4109 H         1 <0>         0.1152
     37 H8          5.0597   -1.0230   -0.0576 H         1 <0>         0.0853
     38 H9          4.4328   -1.7744    1.4406 H         1 <0>         0.0918
     39 H10         5.4709   -9.1957   -2.7278 H         1 <0>         0.1011
     40 H11         6.6312   -7.8656   -2.9839 H         1 <0>         0.1432
     41 H12         7.7250   -9.9912   -2.1811 H         1 <0>         0.1520
     42 H13         7.9760   -8.6152   -1.0800 H         1 <0>         0.1370
     43 H14         5.8804  -10.6456   -0.7746 H         1 <0>         0.4301
     44 H15         5.6536   -9.7072    1.4339 H         1 <0>         0.1512
     45 H16         6.8195   -8.4567    0.9384 H         1 <0>         0.1356
     46 H17         4.5605   -7.5788    0.6485 H         1 <0>         0.1449
     47 H18         4.0960   -9.0053   -0.3161 H         1 <0>         0.0997
     48 H19         6.0035   -2.8968   -4.0229 H         1 <0>         0.4349
     49 H20         7.3008   -6.1986   -3.2721 H         1 <0>         0.1822
     50 H21         8.8881   -7.3899   -4.7256 H         1 <0>         0.1536
     51 H22         8.7764   -4.3415   -7.5420 H         1 <0>         0.1642
     52 H23         7.1773   -3.0543   -6.1864 H         1 <0>         0.1416
     53 H24         7.3088  -10.6427    0.0437 H         1 <0>         0.4360
@<TRIPOS>BOND
     1    1    6 ar
     2    1    2 ar
     3    1   30 1
     4    2    3 ar
     5    2   31 1
     6    3    4 ar
     7    3   32 1
     8    4    9 1
     9    4    5 ar
    10    5    6 ar
    11    5    7 1
    12    6   33 1
    13    7    8 1
    14    7   34 1
    15    7   35 1
    16    8    9 1
    17    8   10 1
    18    8   36 1
    19    9   37 1
    20    9   38 1
    21   10   11 1
    22   11   16 ar
    23   11   12 ar
    24   12   13 ar
    25   13   14 ar
    26   13   23 1
    27   14   15 ar
    28   15   16 ar
    29   15   17 1
    30   17   22 1
    31   17   18 1
    32   18   19 1
    33   18   39 1
    34   18   40 1
    35   19   20 1
    36   19   41 1
    37   19   42 1
    38   20   21 1
    39   20   43 1
    40   20   53 1
    41   21   22 1
    42   21   44 1
    43   21   45 1
    44   22   46 1
    45   22   47 1
    46   23   24 1
    47   23   48 1
    48   24   29 ar
    49   24   25 ar
    50   25   26 ar
    51   25   49 1
    52   26   27 ar
    53   26   50 1
    54   27   28 ar
    55   28   29 ar
    56   28   51 1
    57   29   52 1
@<TRIPOS>MOLECULE
CHEMBL224505
   48    51     0     0     0
SMALL
USER_CHARGES

@<TRIPOS>ATOM
      1 C1         -0.0167    1.3781    0.0096 C.ar      1 <0>        -0.0834
      2 C2          1.1709    2.0855    0.0021 C.ar      1 <0>        -0.1133
      3 C3          2.3773    1.4107   -0.0130 C.ar      1 <0>        -0.0983
      4 C4          2.3960    0.0285   -0.0201 C.ar      1 <0>        -0.1630
      5 C5          1.2084   -0.6789   -0.0117 C.ar      1 <0>        -0.0937
      6 C6          0.0021   -0.0041    0.0020 C.ar      1 <0>        -0.1126
      7 C7          3.7112   -0.7071   -0.0376 C.3       1 <0>         0.0445
      8 N1          4.1530   -0.9531    1.3416 N.4       1 <0>        -0.3829
      9 C8          4.4244    0.3290    2.0029 C.3       1 <0>        -0.0069
     10 C9          4.8069    0.0828    3.4639 C.3       1 <0>        -0.1542
     11 C10         6.0600   -0.7959    3.5167 C.3       1 <0>         0.1452
     12 C11         5.7896   -2.0995    2.7599 C.3       1 <0>        -0.1676
     13 C12         5.3707   -1.7725    1.3250 C.3       1 <0>        -0.0039
     14 N2          6.3878   -1.0985    4.9121 N.pl3     1 <0>        -0.7374
     15 C13         7.6984   -1.4105    5.2681 C.ar      1 <0>         0.2118
     16 C14         8.6948   -1.4312    4.3138 C.ar      1 <0>        -0.1937
     17 C15        10.0063   -1.7412    4.6604 C.ar      1 <0>        -0.0740
     18 C16        10.3458   -2.0331    5.9471 C.ar      1 <0>        -0.1317
     19 C17         9.3621   -2.0230    6.9480 C.ar      1 <0>        -0.0752
     20 C18         8.0226   -1.7027    6.6072 C.ar      1 <0>        -0.0626
     21 C19         7.0591   -1.6946    7.6299 C.ar      1 <0>        -0.1545
     22 C20         7.4521   -1.9883    8.9010 C.ar      1 <0>         0.0765
     23 N3          8.7121   -2.2788    9.1941 N.ar      1 <0>        -0.4782
     24 C21         9.6614   -2.3173    8.2886 C.ar      1 <0>         0.1454
     25 H1         -0.9591    1.9053    0.0259 H         1 <0>         0.1363
     26 H2          1.1563    3.1654    0.0076 H         1 <0>         0.1365
     27 H3          3.3051    1.9634   -0.0196 H         1 <0>         0.1311
     28 H4          1.2231   -1.7588   -0.0176 H         1 <0>         0.1312
     29 H5         -0.9258   -0.5567    0.0082 H         1 <0>         0.1365
     30 H6          3.5884   -1.6586   -0.5549 H         1 <0>         0.1380
     31 H7          4.4573   -0.1052   -0.5563 H         1 <0>         0.1364
     32 H8          5.2450    0.8337    1.4930 H         1 <0>         0.1322
     33 H9          3.5326    0.9544    1.9617 H         1 <0>         0.1369
     34 H10         5.0097    1.0357    3.9526 H         1 <0>         0.1190
     35 H11         3.9868   -0.4218    3.9748 H         1 <0>         0.0929
     36 H12         6.8936   -0.2703    3.0510 H         1 <0>         0.0987
     37 H13         6.6949   -2.7065    2.7454 H         1 <0>         0.1173
     38 H14         4.9899   -2.6494    3.2562 H         1 <0>         0.0920
     39 H15         5.1776   -2.6984    0.7833 H         1 <0>         0.1349
     40 H16         6.1712   -1.2229    0.8296 H         1 <0>         0.1318
     41 H17         5.6925   -1.0816    5.5883 H         1 <0>         0.4045
     42 H18         8.4538   -1.2045    3.2857 H         1 <0>         0.1208
     43 H19        10.7687   -1.7509    3.8955 H         1 <0>         0.1284
     44 H20        11.3692   -2.2719    6.1962 H         1 <0>         0.1347
     45 H21         6.0275   -1.4599    7.4127 H         1 <0>         0.1281
     46 H22         6.7168   -1.9839    9.6919 H         1 <0>         0.1546
     47 H23        10.6736   -2.5604    8.5761 H         1 <0>         0.1685
     48 H24         3.4271   -1.4414    1.8443 H         1 <0>         0.4225
@<TRIPOS>BOND
     1    1    6 ar
     2    1    2 ar
     3    1   25 1
     4    2    3 ar
     5    2   26 1
     6    3    4 ar
     7    3   27 1
     8    4    5 ar
     9    4    7 1
    10    5    6 ar
    11    5   28 1
    12    6   29 1
    13    7    8 1
    14    7   30 1
    15    7   31 1
    16    8   13 1
    17    8    9 1
    18    8   48 1
    19    9   10 1
    20    9   32 1
    21    9   33 1
    22   10   11 1
    23   10   34 1
    24   10   35 1
    25   11   12 1
    26   11   14 1
    27   11   36 1
    28   12   13 1
    29   12   37 1
    30   12   38 1
    31   13   39 1
    32   13   40 1
    33   14   15 1
    34   14   41 1
    35   15   20 ar
    36   15   16 ar
    37   16   17 ar
    38   16   42 1
    39   17   18 ar
    40   17   43 1
    41   18   19 ar
    42   18   44 1
    43   19   24 ar
    44   19   20 ar
    45   20   21 ar
    46   21   22 ar
    47   21   45 1
    48   22   23 ar
    49   22   46 1
    50   23   24 ar
    51   24   47 1
@<TRIPOS>MOLECULE
CHEMBL224505__1
   49    52     0     0     0
SMALL
USER_CHARGES

@<TRIPOS>ATOM
      1 C1         -0.0167    1.3781    0.0096 C.ar      1 <0>        -0.0804
      2 C2          1.1709    2.0855    0.0021 C.ar      1 <0>        -0.1125
      3 C3          2.3773    1.4107   -0.0130 C.ar      1 <0>        -0.0992
      4 C4          2.3960    0.0285   -0.0201 C.ar      1 <0>        -0.1671
      5 C5          1.2084   -0.6789   -0.0117 C.ar      1 <0>        -0.0933
      6 C6          0.0021   -0.0041    0.0020 C.ar      1 <0>        -0.1114
      7 C7          3.7112   -0.7071   -0.0376 C.3       1 <0>         0.0450
      8 N1          4.1530   -0.9531    1.3416 N.4       1 <0>        -0.3838
      9 C8          4.4244    0.3290    2.0029 C.3       1 <0>        -0.0089
     10 C9          4.8069    0.0828    3.4639 C.3       1 <0>        -0.1541
     11 C10         6.0600   -0.7959    3.5167 C.3       1 <0>         0.1378
     12 C11         5.7896   -2.0995    2.7599 C.3       1 <0>        -0.1672
     13 C12         5.3707   -1.7725    1.3250 C.3       1 <0>        -0.0053
     14 N2          6.3878   -1.0985    4.9121 N.pl3     1 <0>        -0.7278
     15 C13         7.6984   -1.4105    5.2681 C.ar      1 <0>         0.2204
     16 C14         8.6948   -1.4312    4.3138 C.ar      1 <0>        -0.1492
     17 C15        10.0063   -1.7412    4.6604 C.ar      1 <0>        -0.0398
     18 C16        10.3458   -2.0331    5.9471 C.ar      1 <0>        -0.1150
     19 C17         9.3621   -2.0230    6.9480 C.ar      1 <0>        -0.0633
     20 C18         8.0226   -1.7027    6.6072 C.ar      1 <0>        -0.0450
     21 C19         7.0591   -1.6946    7.6299 C.ar      1 <0>        -0.0725
     22 C20         7.4521   -1.9883    8.9010 C.ar      1 <0>         0.0460
     23 N3          8.7121   -2.2788    9.1941 N.ar      1 <0>        -0.4349
     24 C21         9.6614   -2.3173    8.2886 C.ar      1 <0>         0.2125
     25 H1         -0.9591    1.9053    0.0259 H         1 <0>         0.1381
     26 H2          1.1563    3.1654    0.0076 H         1 <0>         0.1377
     27 H3          3.3051    1.9634   -0.0196 H         1 <0>         0.1306
     28 H4          1.2231   -1.7588   -0.0176 H         1 <0>         0.1313
     29 H5         -0.9258   -0.5567    0.0082 H         1 <0>         0.1379
     30 H6          3.5884   -1.6586   -0.5549 H         1 <0>         0.1398
     31 H7          4.4573   -0.1052   -0.5563 H         1 <0>         0.1376
     32 H8          5.2450    0.8337    1.4930 H         1 <0>         0.1343
     33 H9          3.5326    0.9544    1.9617 H         1 <0>         0.1415
     34 H10         5.0097    1.0357    3.9526 H         1 <0>         0.1212
     35 H11         3.9868   -0.4218    3.9748 H         1 <0>         0.0958
     36 H12         6.8936   -0.2703    3.0510 H         1 <0>         0.1050
     37 H13         6.6949   -2.7065    2.7454 H         1 <0>         0.1164
     38 H14         4.9899   -2.6494    3.2562 H         1 <0>         0.0956
     39 H15         5.1776   -2.6984    0.7833 H         1 <0>         0.1391
     40 H16         6.1712   -1.2229    0.8296 H         1 <0>         0.1339
     41 H17         5.6925   -1.0816    5.5883 H         1 <0>         0.4091
     42 H18         8.4538   -1.2045    3.2857 H         1 <0>         0.1433
     43 H19        10.7687   -1.7509    3.8955 H         1 <0>         0.1530
     44 H20        11.3692   -2.2719    6.1962 H         1 <0>         0.1571
     45 H21         6.0275   -1.4599    7.4127 H         1 <0>         0.1704
     46 H22         6.7168   -1.9839    9.6919 H         1 <0>         0.2033
     47 H23        10.6736   -2.5604    8.5761 H         1 <0>         0.2196
     48 H24         3.4271   -1.4414    1.8443 H         1 <0>         0.4232
     49 H25         8.9403   -2.4802   10.1152 H         1 <0>         0.4542
@<TRIPOS>BOND
     1    1    6 ar
     2    1    2 ar
     3    1   25 1
     4    2    3 ar
     5    2   26 1
     6    3    4 ar
     7    3   27 1
     8    4    5 ar
     9    4    7 1
    10    5    6 ar
    11    5   28 1
    12    6   29 1
    13    7    8 1
    14    7   30 1
    15    7   31 1
    16    8   13 1
    17    8    9 1
    18    8   48 1
    19    9   10 1
    20    9   32 1
    21    9   33 1
    22   10   11 1
    23   10   34 1
    24   10   35 1
    25   11   12 1
    26   11   14 1
    27   11   36 1
    28   12   13 1
    29   12   37 1
    30   12   38 1
    31   13   39 1
    32   13   40 1
    33   14   15 1
    34   14   41 1
    35   15   20 ar
    36   15   16 ar
    37   16   17 ar
    38   16   42 1
    39   17   18 ar
    40   17   43 1
    41   18   19 ar
    42   18   44 1
    43   19   24 ar
    44   19   20 ar
    45   20   21 ar
    46   21   22 ar
    47   21   45 1
    48   22   23 ar
    49   22   46 1
    50   23   24 ar
    51   23   49 1
    52   24   47 1
@<TRIPOS>MOLECULE
CHEMBL224360
   47    49     0     0     0
SMALL
USER_CHARGES

@<TRIPOS>ATOM
      1 C1         -0.0187    1.5258    0.0104 C.3       1 <0>        -0.1571
      2 C2          0.0021   -0.0041    0.0020 C.3       1 <0>        -0.1508
      3 C3          0.7182   -0.4975   -1.2568 C.3       1 <0>        -0.0143
      4 N1          0.7381   -1.9663   -1.2649 N.4       1 <0>        -0.5078
      5 C4          1.4257   -2.4401   -2.4735 C.3       1 <0>         0.0231
      6 C5          0.6183   -2.0394   -3.7098 C.3       1 <0>        -0.1362
      7 C6          1.3344   -2.5328   -4.9686 C.3       1 <0>        -0.1265
      8 C7          1.4654   -4.0563   -4.9167 C.3       1 <0>         0.1489
      9 C8          2.2729   -4.4570   -3.6804 C.3       1 <0>        -0.1363
     10 C9          1.5568   -3.9636   -2.4216 C.3       1 <0>        -0.1385
     11 N2          2.1512   -4.5288   -6.1220 N.pl3     1 <0>        -0.7384
     12 C10         1.9466   -5.8306   -6.5750 C.ar      1 <0>         0.2178
     13 C11         1.0954   -6.6796   -5.8977 C.ar      1 <0>        -0.1981
     14 C12         0.8848   -7.9810   -6.3432 C.ar      1 <0>        -0.0712
     15 C13         1.5101   -8.4554   -7.4568 C.ar      1 <0>        -0.1381
     16 C14         2.3837   -7.6239   -8.1744 C.ar      1 <0>        -0.0735
     17 C15         2.6016   -6.2933   -7.7328 C.ar      1 <0>        -0.0657
     18 C16         3.4769   -5.4810   -8.4732 C.ar      1 <0>        -0.1518
     19 C17         4.0723   -6.0023   -9.5823 C.ar      1 <0>         0.0729
     20 N3          3.8472   -7.2478   -9.9772 N.ar      1 <0>        -0.4786
     21 C18         3.0524   -8.0660   -9.3280 C.ar      1 <0>         0.1428
     22 H1          1.0039    1.9031    0.0027 H         1 <0>         0.0672
     23 H2         -0.5459    1.8868   -0.8726 H         1 <0>         0.0671
     24 H3         -0.5289    1.8773    0.9072 H         1 <0>         0.0782
     25 H4          0.5293   -0.3651    0.8851 H         1 <0>         0.0864
     26 H5         -1.0205   -0.3814    0.0098 H         1 <0>         0.0864
     27 H6          0.1910   -0.1364   -2.1398 H         1 <0>         0.1324
     28 H7          1.7408   -0.1202   -1.2645 H         1 <0>         0.1314
     29 H8          1.2261   -2.3006   -0.4474 H         1 <0>         0.4291
     30 H9          2.4178   -1.9917   -2.5265 H         1 <0>         0.1405
     31 H10        -0.3738   -2.4878   -3.6568 H         1 <0>         0.0915
     32 H11         0.5249   -0.9541   -3.7467 H         1 <0>         0.0935
     33 H12         0.7592   -2.2474   -5.8493 H         1 <0>         0.0931
     34 H13         2.3265   -2.0844   -5.0215 H         1 <0>         0.0811
     35 H14         0.4734   -4.5048   -4.8637 H         1 <0>         0.0882
     36 H15         2.3663   -5.5424   -3.6435 H         1 <0>         0.0912
     37 H16         3.2650   -4.0086   -3.7334 H         1 <0>         0.0790
     38 H17         2.1320   -4.2490   -1.5409 H         1 <0>         0.0924
     39 H18         0.5647   -4.4120   -2.3687 H         1 <0>         0.0899
     40 H19         2.7476   -3.9354   -6.6048 H         1 <0>         0.4023
     41 H20         0.5870   -6.3301   -5.0113 H         1 <0>         0.1208
     42 H21         0.2139   -8.6267   -5.7960 H         1 <0>         0.1266
     43 H22         1.3342   -9.4688   -7.7863 H         1 <0>         0.1332
     44 H23         3.6736   -4.4634   -8.1694 H         1 <0>         0.1283
     45 H24         4.7462   -5.3835  -10.1561 H         1 <0>         0.1539
     46 H25         2.9015   -9.0729   -9.6883 H         1 <0>         0.1674
     47 H26        -0.2085   -2.3156   -1.2577 H         1 <0>         0.4264
@<TRIPOS>BOND
     1    1    2 1
     2    1   22 1
     3    1   23 1
     4    1   24 1
     5    2    3 1
     6    2   25 1
     7    2   26 1
     8    3    4 1
     9    3   27 1
    10    3   28 1
    11    4    5 1
    12    4   29 1
    13    4   47 1
    14    5   10 1
    15    5    6 1
    16    5   30 1
    17    6    7 1
    18    6   31 1
    19    6   32 1
    20    7    8 1
    21    7   33 1
    22    7   34 1
    23    8    9 1
    24    8   11 1
    25    8   35 1
    26    9   10 1
    27    9   36 1
    28    9   37 1
    29   10   38 1
    30   10   39 1
    31   11   12 1
    32   11   40 1
    33   12   17 ar
    34   12   13 ar
    35   13   14 ar
    36   13   41 1
    37   14   15 ar
    38   14   42 1
    39   15   16 ar
    40   15   43 1
    41   16   21 ar
    42   16   17 ar
    43   17   18 ar
    44   18   19 ar
    45   18   44 1
    46   19   20 ar
    47   19   45 1
    48   20   21 ar
    49   21   46 1
@<TRIPOS>MOLECULE
CHEMBL224360__1
   48    50     0     0     0
SMALL
USER_CHARGES

@<TRIPOS>ATOM
      1 C1         -0.0187    1.5258    0.0104 C.3       1 <0>        -0.1579
      2 C2          0.0021   -0.0041    0.0020 C.3       1 <0>        -0.1513
      3 C3          0.7182   -0.4975   -1.2568 C.3       1 <0>        -0.0142
      4 N1          0.7381   -1.9663   -1.2649 N.4       1 <0>        -0.5083
      5 C4          1.4257   -2.4401   -2.4735 C.3       1 <0>         0.0228
      6 C5          0.6183   -2.0394   -3.7098 C.3       1 <0>        -0.1388
      7 C6          1.3344   -2.5328   -4.9686 C.3       1 <0>        -0.1263
      8 C7          1.4654   -4.0563   -4.9167 C.3       1 <0>         0.1414
      9 C8          2.2729   -4.4570   -3.6804 C.3       1 <0>        -0.1356
     10 C9          1.5568   -3.9636   -2.4216 C.3       1 <0>        -0.1408
     11 N2          2.1512   -4.5288   -6.1220 N.pl3     1 <0>        -0.7272
     12 C10         1.9466   -5.8306   -6.5750 C.ar      1 <0>         0.2257
     13 C11         1.0954   -6.6796   -5.8977 C.ar      1 <0>        -0.1529
     14 C12         0.8848   -7.9810   -6.3432 C.ar      1 <0>        -0.0378
     15 C13         1.5101   -8.4554   -7.4568 C.ar      1 <0>        -0.1208
     16 C14         2.3837   -7.6239   -8.1744 C.ar      1 <0>        -0.0619
     17 C15         2.6016   -6.2933   -7.7328 C.ar      1 <0>        -0.0485
     18 C16         3.4769   -5.4810   -8.4732 C.ar      1 <0>        -0.0697
     19 C17         4.0723   -6.0023   -9.5823 C.ar      1 <0>         0.0420
     20 N3          3.8472   -7.2478   -9.9772 N.ar      1 <0>        -0.4346
     21 C18         3.0524   -8.0660   -9.3280 C.ar      1 <0>         0.2097
     22 H1          1.0039    1.9031    0.0027 H         1 <0>         0.0677
     23 H2         -0.5459    1.8868   -0.8726 H         1 <0>         0.0672
     24 H3         -0.5289    1.8773    0.9072 H         1 <0>         0.0802
     25 H4          0.5293   -0.3651    0.8851 H         1 <0>         0.0876
     26 H5         -1.0205   -0.3814    0.0098 H         1 <0>         0.0871
     27 H6          0.1910   -0.1364   -2.1398 H         1 <0>         0.1323
     28 H7          1.7408   -0.1202   -1.2645 H         1 <0>         0.1323
     29 H8          1.2261   -2.3006   -0.4474 H         1 <0>         0.4310
     30 H9          2.4178   -1.9917   -2.5265 H         1 <0>         0.1414
     31 H10        -0.3738   -2.4878   -3.6568 H         1 <0>         0.0936
     32 H11         0.5249   -0.9541   -3.7467 H         1 <0>         0.0984
     33 H12         0.7592   -2.2474   -5.8493 H         1 <0>         0.0952
     34 H13         2.3265   -2.0844   -5.0215 H         1 <0>         0.0843
     35 H14         0.4734   -4.5048   -4.8637 H         1 <0>         0.0947
     36 H15         2.3663   -5.5424   -3.6435 H         1 <0>         0.0901
     37 H16         3.2650   -4.0086   -3.7334 H         1 <0>         0.0830
     38 H17         2.1320   -4.2490   -1.5409 H         1 <0>         0.0971
     39 H18         0.5647   -4.4120   -2.3687 H         1 <0>         0.0921
     40 H19         2.7476   -3.9354   -6.6048 H         1 <0>         0.4071
     41 H20         0.5870   -6.3301   -5.0113 H         1 <0>         0.1432
     42 H21         0.2139   -8.6267   -5.7960 H         1 <0>         0.1513
     43 H22         1.3342   -9.4688   -7.7863 H         1 <0>         0.1557
     44 H23         3.6736   -4.4634   -8.1694 H         1 <0>         0.1704
     45 H24         4.7462   -5.3835  -10.1561 H         1 <0>         0.2025
     46 H25         2.9015   -9.0729   -9.6883 H         1 <0>         0.2185
     47 H26        -0.2085   -2.3156   -1.2577 H         1 <0>         0.4273
     48 H27         4.2956   -7.5707  -10.7744 H         1 <0>         0.4533
@<TRIPOS>BOND
     1    1    2 1
     2    1   22 1
     3    1   23 1
     4    1   24 1
     5    2    3 1
     6    2   25 1
     7    2   26 1
     8    3    4 1
     9    3   27 1
    10    3   28 1
    11    4    5 1
    12    4   29 1
    13    4   47 1
    14    5   10 1
    15    5    6 1
    16    5   30 1
    17    6    7 1
    18    6   31 1
    19    6   32 1
    20    7    8 1
    21    7   33 1
    22    7   34 1
    23    8    9 1
    24    8   11 1
    25    8   35 1
    26    9   10 1
    27    9   36 1
    28    9   37 1
    29   10   38 1
    30   10   39 1
    31   11   12 1
    32   11   40 1
    33   12   17 ar
    34   12   13 ar
    35   13   14 ar
    36   13   41 1
    37   14   15 ar
    38   14   42 1
    39   15   16 ar
    40   15   43 1
    41   16   21 ar
    42   16   17 ar
    43   17   18 ar
    44   18   19 ar
    45   18   44 1
    46   19   20 ar
    47   19   45 1
    48   20   21 ar
    49   20   48 1
    50   21   46 1
@<TRIPOS>MOLECULE
CHEMBL484967
   50    53     0     0     0
SMALL
USER_CHARGES

@<TRIPOS>ATOM
      1 C1         -0.1125    1.9780    0.6511 C.ar      1 <0>        -0.0866
      2 C2          1.1391    2.5369    0.4911 C.ar      1 <0>        -0.1034
      3 C3          2.2475    1.7139    0.2988 C.ar      1 <0>        -0.0005
      4 C4          2.0846    0.3299    0.2692 C.ar      1 <0>        -0.0904
      5 C5          0.8281   -0.2179    0.4303 C.ar      1 <0>        -0.0915
      6 C6         -0.2683    0.6038    0.6209 C.ar      1 <0>        -0.1683
      7 C7         -1.6376   -0.0004    0.7962 C.3       1 <0>         0.0463
      8 N1         -2.2812   -0.1441   -0.5165 N.4       1 <0>        -0.6376
      9 C8          3.5950    2.3085    0.1258 C.ar      1 <0>        -0.0684
     10 C9          3.7821    3.3284   -0.7889 C.ar      1 <0>        -0.0420
     11 C10         5.0576    3.8848   -0.9458 C.ar      1 <0>        -0.0487
     12 C11         5.3109    4.9252   -1.8598 C.ar      1 <0>        -0.1404
     13 C12         6.5773    5.4162   -1.9568 C.ar      1 <0>         0.0826
     14 N2          7.5704    4.9421   -1.2170 N.ar      1 <0>        -0.4653
     15 C13         7.4083    3.9743   -0.3453 C.ar      1 <0>         0.1346
     16 C14         6.1404    3.3970   -0.1667 C.ar      1 <0>        -0.0725
     17 C15         5.9224    2.3608    0.7544 C.ar      1 <0>        -0.1844
     18 C16         4.6724    1.8336    0.8987 C.ar      1 <0>         0.1369
     19 O1          4.4655    0.8343    1.7953 O.3       1 <0>        -0.2946
     20 C17         5.5673    0.4738    2.6307 C.3       1 <0>         0.0710
     21 C18         6.4578   -0.5336    1.8976 C.3       1 <0>        -0.1799
     22 C19         7.5906   -0.9754    2.8265 C.3       1 <0>        -0.0045
     23 N3          7.0267   -1.6022    4.0280 N.4       1 <0>        -0.5077
     24 C20         6.2297   -0.6212    4.7742 C.3       1 <0>        -0.0031
     25 C21         5.0445   -0.1657    3.9202 C.3       1 <0>        -0.1432
     26 H1         -0.9714    2.6145    0.8046 H         1 <0>         0.1371
     27 H2          1.2595    3.6099    0.5145 H         1 <0>         0.1382
     28 H3          2.9398   -0.3126    0.1202 H         1 <0>         0.1332
     29 H4          0.7006   -1.2901    0.4076 H         1 <0>         0.1334
     30 H5         -1.5452   -0.9802    1.2647 H         1 <0>         0.1398
     31 H6         -2.2431    0.6490    1.4285 H         1 <0>         0.1413
     32 H7         -2.3668    0.7628   -0.9502 H         1 <0>         0.4358
     33 H8         -1.7207   -0.7453   -1.1018 H         1 <0>         0.4346
     34 H9          2.9525    3.6923   -1.3769 H         1 <0>         0.1470
     35 H10         4.5166    5.3257   -2.4722 H         1 <0>         0.1463
     36 H11         6.7786    6.2141   -2.6563 H         1 <0>         0.1635
     37 H12         8.2491    3.6221    0.2338 H         1 <0>         0.1644
     38 H13         6.7409    1.9847    1.3503 H         1 <0>         0.1392
     39 H14         6.1466    1.3644    2.8745 H         1 <0>         0.0949
     40 H15         5.8645   -1.4012    1.6089 H         1 <0>         0.1021
     41 H16         6.8785   -0.0668    1.0069 H         1 <0>         0.1197
     42 H17         8.2266   -1.6925    2.3076 H         1 <0>         0.1432
     43 H18         8.1834   -0.1071    3.1144 H         1 <0>         0.1356
     44 H19         6.4385   -2.3762    3.7578 H         1 <0>         0.4300
     45 H20         5.8610   -1.0768    5.6932 H         1 <0>         0.1450
     46 H21         6.8514    0.2395    5.0206 H         1 <0>         0.1363
     47 H22         4.4550    0.5639    4.4754 H         1 <0>         0.1218
     48 H23         4.4218   -1.0257    3.6735 H         1 <0>         0.1002
     49 H24         7.7761   -1.9401    4.6131 H         1 <0>         0.4386
     50 H25        -3.1980   -0.5487   -0.3991 H         1 <0>         0.4403
@<TRIPOS>BOND
     1    1    6 ar
     2    1    2 ar
     3    1   26 1
     4    2    3 ar
     5    2   27 1
     6    3    4 ar
     7    3    9 1
     8    4    5 ar
     9    4   28 1
    10    5    6 ar
    11    5   29 1
    12    6    7 1
    13    7    8 1
    14    7   30 1
    15    7   31 1
    16    8   32 1
    17    8   33 1
    18    8   50 1
    19    9   18 ar
    20    9   10 ar
    21   10   11 ar
    22   10   34 1
    23   11   16 ar
    24   11   12 ar
    25   12   13 ar
    26   12   35 1
    27   13   14 ar
    28   13   36 1
    29   14   15 ar
    30   15   16 ar
    31   15   37 1
    32   16   17 ar
    33   17   18 ar
    34   17   38 1
    35   18   19 1
    36   19   20 1
    37   20   25 1
    38   20   21 1
    39   20   39 1
    40   21   22 1
    41   21   40 1
    42   21   41 1
    43   22   23 1
    44   22   42 1
    45   22   43 1
    46   23   24 1
    47   23   44 1
    48   23   49 1
    49   24   25 1
    50   24   45 1
    51   24   46 1
    52   25   47 1
    53   25   48 1
@<TRIPOS>MOLECULE
CHEMBL1084947
   40    43     0     0     0
SMALL
USER_CHARGES

@<TRIPOS>ATOM
      1 C1         -0.1837    1.4179    0.0421 C.3       1 <0>        -0.1139
      2 C2         -0.0874   -0.0856    0.0099 C.2       1 <0>        -0.0373
      3 C3         -0.0313   -0.7930   -1.2567 C.ar      1 <0>        -0.0784
      4 C4         -0.0551   -0.2577   -2.5688 C.ar      1 <0>        -0.0677
      5 C5          0.0059   -1.0862   -3.6622 C.ar      1 <0>         0.0827
      6 C6          0.0924   -2.4697   -3.5174 C.ar      1 <0>        -0.1070
      7 C7          0.1181   -3.0203   -2.2529 C.ar      1 <0>        -0.0607
      8 C8          0.0575   -2.1987   -1.1470 C.ar      1 <0>        -0.1102
      9 S1          0.0608   -2.4860    0.6042 S.3       1 <0>         0.0841
     10 C9         -0.0463   -0.7967    1.1631 C.2       1 <0>        -0.1222
     11 C10        -0.0833   -0.2924    2.5509 C.ar      1 <0>         0.3042
     12 C11        -0.0248   -1.1802    3.6320 C.ar      1 <0>        -0.2765
     13 C12        -0.0622   -0.6611    4.9126 C.ar      1 <0>         0.2038
     14 N1         -0.1515    0.6497    5.0785 N.ar      1 <0>        -0.5720
     15 C13        -0.2054    1.4679    4.0374 C.ar      1 <0>         0.5748
     16 N2         -0.1674    1.0154    2.7942 N.ar      1 <0>        -0.5600
     17 N3         -0.2988    2.8315    4.2558 N.pl3     1 <0>        -0.8191
     18 O1         -0.0192   -0.5466   -4.9100 O.3       1 <0>        -0.2518
     19 C14        -1.1082   -0.7855   -5.6866 C.ar      1 <0>         0.1358
     20 C15        -1.1221   -0.3691   -7.0108 C.ar      1 <0>        -0.1522
     21 C16        -2.2293   -0.6113   -7.8007 C.ar      1 <0>        -0.0649
     22 C17        -3.3254   -1.2689   -7.2752 C.ar      1 <0>        -0.1761
     23 C18        -3.3166   -1.6871   -5.9522 C.ar      1 <0>         0.1441
     24 C19        -2.2044   -1.4504   -5.1588 C.ar      1 <0>        -0.2234
     25 O2         -4.3950   -2.3332   -5.4360 O.3       1 <0>        -0.4970
     26 H1          0.8186    1.8461    0.0541 H         1 <0>         0.0768
     27 H2         -0.7172    1.7668   -0.8421 H         1 <0>         0.0626
     28 H3         -0.7223    1.7285    0.9374 H         1 <0>         0.1025
     29 H4         -0.1221    0.8109   -2.7100 H         1 <0>         0.1401
     30 H5          0.1388   -3.1060   -4.3889 H         1 <0>         0.1445
     31 H6          0.1847   -4.0912   -2.1294 H         1 <0>         0.1435
     32 H7          0.0475   -2.2454    3.4692 H         1 <0>         0.1458
     33 H8         -0.0193   -1.3178    5.7690 H         1 <0>         0.1744
     34 H9         -0.3241    3.1770    5.1619 H         1 <0>         0.4170
     35 H10        -0.3391    3.4417    3.5028 H         1 <0>         0.4153
     36 H11        -0.2667    0.1449   -7.4238 H         1 <0>         0.1371
     37 H12        -2.2385   -0.2860   -8.8305 H         1 <0>         0.1383
     38 H13        -4.1898   -1.4570   -7.8947 H         1 <0>         0.1328
     39 H14        -2.1939   -1.7791   -4.1301 H         1 <0>         0.1358
     40 H15        -4.3614   -3.2947   -5.5337 H         1 <0>         0.3943
@<TRIPOS>BOND
     1    1    2 1
     2    1   26 1
     3    1   27 1
     4    1   28 1
     5    2   10 2
     6    2    3 1
     7    3    8 ar
     8    3    4 ar
     9    4    5 ar
    10    4   29 1
    11    5    6 ar
    12    5   18 1
    13    6    7 ar
    14    6   30 1
    15    7    8 ar
    16    7   31 1
    17    8    9 1
    18    9   10 1
    19   10   11 1
    20   11   16 ar
    21   11   12 ar
    22   12   13 ar
    23   12   32 1
    24   13   14 ar
    25   13   33 1
    26   14   15 ar
    27   15   16 ar
    28   15   17 1
    29   17   34 1
    30   17   35 1
    31   18   19 1
    32   19   24 ar
    33   19   20 ar
    34   20   21 ar
    35   20   36 1
    36   21   22 ar
    37   21   37 1
    38   22   23 ar
    39   22   38 1
    40   23   24 ar
    41   23   25 1
    42   24   39 1
    43   25   40 1
@<TRIPOS>MOLECULE
CHEMBL575759
   57    61     0     0     0
SMALL
USER_CHARGES

@<TRIPOS>ATOM
      1 C1          0.9364    2.4439   -0.4575 C.ar      1 <0>        -0.1160
      2 C2          2.2186    2.9471   -0.3374 C.ar      1 <0>        -0.1168
      3 C3          3.2905    2.0816   -0.2702 C.ar      1 <0>        -0.1170
      4 C4          3.0926    0.7075   -0.3207 C.ar      1 <0>        -0.0743
      5 C5          1.8156    0.2064   -0.4351 C.ar      1 <0>        -0.0810
      6 C6          0.7377    1.0798   -0.5063 C.ar      1 <0>        -0.1161
      7 C7          1.5255   -1.2710   -0.4794 C.3       1 <0>        -0.0757
      8 C8          2.7892   -2.0567   -0.8232 C.3       1 <0>        -0.1281
      9 C9          3.9108   -1.6066    0.1203 C.3       1 <0>         0.1594
     10 C10         4.3082   -0.1792   -0.2501 C.3       1 <0>        -0.0849
     11 N1          5.0664   -2.4948   -0.0278 N.pl3     1 <0>        -0.6721
     12 C11         5.9624   -2.6406    1.0117 C.ar      1 <0>         0.6601
     13 N2          5.7739   -1.9793    2.1495 N.ar      1 <0>        -0.6470
     14 C12         6.6365   -2.1200    3.1508 C.ar      1 <0>         0.6594
     15 N3          7.6879   -2.9220    3.0146 N.ar      1 <0>        -0.6722
     16 C13         7.8765   -3.5833    1.8771 C.ar      1 <0>         0.6577
     17 N4          7.0109   -3.4464    0.8773 N.ar      1 <0>        -0.6726
     18 N5          8.9681   -4.4159    1.7357 N.pl3     1 <0>        -0.5966
     19 C14         9.2002   -5.1528    0.4838 C.3       1 <0>         0.1054
     20 C15        10.6465   -4.9112    0.0391 C.3       1 <0>        -0.0218
     21 N6         11.5599   -5.2694    1.1315 N.4       1 <0>        -0.5059
     22 C16        11.3443   -4.3762    2.2769 C.3       1 <0>        -0.0212
     23 C17         9.9357   -4.5870    2.8305 C.3       1 <0>         0.1041
     24 N7          6.4407   -1.4322    4.3335 N.pl3     1 <0>        -0.6215
     25 C18         5.2787   -0.6854    4.5213 C.ar      1 <0>         0.1998
     26 C19         4.0603   -1.1137    3.9955 C.ar      1 <0>        -0.1639
     27 C20         2.9336   -0.3460    4.2036 C.ar      1 <0>         0.1214
     28 N8          2.9992    0.7799    4.8892 N.ar      1 <0>        -0.4888
     29 C21         4.1331    1.2189    5.4026 C.ar      1 <0>         0.1230
     30 C22         5.3034    0.5064    5.2447 C.ar      1 <0>        -0.1984
     31 H1          0.0929    3.1164   -0.5084 H         1 <0>         0.1240
     32 H2          2.3803    4.0141   -0.2967 H         1 <0>         0.1226
     33 H3          4.2919    2.4754   -0.1779 H         1 <0>         0.1164
     34 H4         -0.2640    0.6875   -0.6010 H         1 <0>         0.1229
     35 H5          1.1552   -1.5939    0.4937 H         1 <0>         0.0810
     36 H6          0.7646   -1.4654   -1.2353 H         1 <0>         0.0843
     37 H7          2.6054   -3.1231   -0.6924 H         1 <0>         0.0780
     38 H8          3.0760   -1.8571   -1.8557 H         1 <0>         0.0750
     39 H9          3.5564   -1.6333    1.1508 H         1 <0>         0.1014
     40 H10         4.8058   -0.1848   -1.2200 H         1 <0>         0.0749
     41 H11         4.9938    0.2099    0.5026 H         1 <0>         0.0766
     42 H12         5.2018   -2.9804   -0.8566 H         1 <0>         0.4179
     43 H13         9.0416   -6.2181    0.6511 H         1 <0>         0.0948
     44 H14         8.5158   -4.7938   -0.2848 H         1 <0>         0.1422
     45 H15        10.8656   -5.5256   -0.8342 H         1 <0>         0.1482
     46 H16        10.7779   -3.8592   -0.2143 H         1 <0>         0.1341
     47 H17        11.3878   -6.2229    1.4131 H         1 <0>         0.4292
     48 H18        12.0777   -4.5964    3.0526 H         1 <0>         0.1485
     49 H19        11.4546   -3.3404    1.9558 H         1 <0>         0.1340
     50 H20         9.7373   -3.8541    3.6126 H         1 <0>         0.1419
     51 H21         9.8526   -5.5942    3.2387 H         1 <0>         0.0945
     52 H22         7.1118   -1.4690    5.0329 H         1 <0>         0.4288
     53 H23         3.9999   -2.0336    3.4329 H         1 <0>         0.1402
     54 H24         1.9857   -0.6700    3.8000 H         1 <0>         0.1569
     55 H25         4.1438    2.1457    5.9570 H         1 <0>         0.1615
     56 H26         6.2269    0.8688    5.6716 H         1 <0>         0.1376
     57 H27        12.5134   -5.1822    0.8133 H         1 <0>         0.4344
@<TRIPOS>BOND
     1    1    6 ar
     2    1    2 ar
     3    1   31 1
     4    2    3 ar
     5    2   32 1
     6    3    4 ar
     7    3   33 1
     8    4   10 1
     9    4    5 ar
    10    5    6 ar
    11    5    7 1
    12    6   34 1
    13    7    8 1
    14    7   35 1
    15    7   36 1
    16    8    9 1
    17    8   37 1
    18    8   38 1
    19    9   10 1
    20    9   11 1
    21    9   39 1
    22   10   40 1
    23   10   41 1
    24   11   12 1
    25   11   42 1
    26   12   17 ar
    27   12   13 ar
    28   13   14 ar
    29   14   15 ar
    30   14   24 1
    31   15   16 ar
    32   16   17 ar
    33   16   18 1
    34   18   23 1
    35   18   19 1
    36   19   20 1
    37   19   43 1
    38   19   44 1
    39   20   21 1
    40   20   45 1
    41   20   46 1
    42   21   22 1
    43   21   47 1
    44   21   57 1
    45   22   23 1
    46   22   48 1
    47   22   49 1
    48   23   50 1
    49   23   51 1
    50   24   25 1
    51   24   52 1
    52   25   30 ar
    53   25   26 ar
    54   26   27 ar
    55   26   53 1
    56   27   28 ar
    57   27   54 1
    58   28   29 ar
    59   29   30 ar
    60   29   55 1
    61   30   56 1
@<TRIPOS>MOLECULE
CHEMBL575759__1
   57    61     0     0     0
SMALL
USER_CHARGES

@<TRIPOS>ATOM
      1 C1          0.3556    2.1209    0.0062 C.ar      1 <0>        -0.1161
      2 C2          1.5623    2.7754   -0.1585 C.ar      1 <0>        -0.1164
      3 C3          2.7382    2.0544   -0.1570 C.ar      1 <0>        -0.1167
      4 C4          2.7203    0.6750    0.0064 C.ar      1 <0>        -0.0736
      5 C5          1.5185    0.0228    0.1653 C.ar      1 <0>        -0.0819
      6 C6          0.3357    0.7513    0.1680 C.ar      1 <0>        -0.1162
      7 C7          1.4226   -1.4712    0.3312 C.3       1 <0>        -0.0753
      8 C8          2.7752   -2.0549    0.7344 C.3       1 <0>        -0.1280
      9 C9          3.8359   -1.5410   -0.2462 C.3       1 <0>         0.1595
     10 C10         4.0414   -0.0486    0.0050 C.3       1 <0>        -0.0860
     11 N1          5.0960   -2.2561   -0.0293 N.pl3     1 <0>        -0.6721
     12 C11         6.0113   -2.3682   -1.0562 C.ar      1 <0>         0.6598
     13 N2          5.7519   -1.8226   -2.2405 N.ar      1 <0>        -0.6468
     14 C12         6.6336   -1.9302   -3.2292 C.ar      1 <0>         0.6591
     15 N3          7.7748   -2.5833   -3.0340 N.ar      1 <0>        -0.6721
     16 C13         8.0343   -3.1289   -1.8500 C.ar      1 <0>         0.6578
     17 N4          7.1547   -3.0170   -0.8594 N.ar      1 <0>        -0.6723
     18 N5          9.2192   -3.8069   -1.6474 N.pl3     1 <0>        -0.5965
     19 C14         9.5249   -4.4239   -0.3474 C.3       1 <0>         0.1052
     20 C15         9.9503   -5.8763   -0.5870 C.3       1 <0>        -0.0216
     21 N6         11.0594   -5.9081   -1.5487 N.4       1 <0>        -0.5059
     22 C16        10.6050   -5.4093   -2.8528 C.3       1 <0>        -0.0213
     23 C17        10.2096   -3.9386   -2.7272 C.3       1 <0>         0.1040
     24 N7          6.3636   -1.3634   -4.4605 N.pl3     1 <0>        -0.6204
     25 C18         5.1210   -0.7794   -4.7016 C.ar      1 <0>         0.1997
     26 C19         4.9998    0.3191   -5.5519 C.ar      1 <0>        -0.1997
     27 C20         3.7524    0.8678   -5.7641 C.ar      1 <0>         0.1235
     28 N8          2.6834    0.3664   -5.1743 N.ar      1 <0>        -0.4897
     29 C21         2.7569   -0.6721   -4.3631 C.ar      1 <0>         0.1215
     30 C22         3.9662   -1.2823   -4.1034 C.ar      1 <0>        -0.1665
     31 H1         -0.5680    2.6808    0.0127 H         1 <0>         0.1239
     32 H2          1.5841    3.8473   -0.2883 H         1 <0>         0.1227
     33 H3          3.6805    2.5665   -0.2842 H         1 <0>         0.1167
     34 H4         -0.6073    0.2409    0.2976 H         1 <0>         0.1227
     35 H5          0.6878   -1.7007    1.1028 H         1 <0>         0.0842
     36 H6          1.1050   -1.9178   -0.6110 H         1 <0>         0.0806
     37 H7          3.0256   -1.7362    1.7462 H         1 <0>         0.0753
     38 H8          2.7326   -3.1433    0.6919 H         1 <0>         0.0773
     39 H9          3.4959   -1.6975   -1.2699 H         1 <0>         0.1010
     40 H10         4.6763    0.3638   -0.7792 H         1 <0>         0.0773
     41 H11         4.5280    0.0897    0.9705 H         1 <0>         0.0755
     42 H12         5.2870   -2.6507    0.8359 H         1 <0>         0.4180
     43 H13        10.3367   -3.8792    0.1347 H         1 <0>         0.0948
     44 H14         8.6382   -4.4017    0.2861 H         1 <0>         0.1423
     45 H15        10.2728   -6.3206    0.3546 H         1 <0>         0.1482
     46 H16         9.1073   -6.4408   -0.9855 H         1 <0>         0.1343
     47 H17        11.8122   -5.3270   -1.2114 H         1 <0>         0.4292
     48 H18        11.4100   -5.5095   -3.5809 H         1 <0>         0.1485
     49 H19         9.7422   -5.9880   -3.1828 H         1 <0>         0.1342
     50 H20         9.7753   -3.5957   -3.6663 H         1 <0>         0.1419
     51 H21        11.0917   -3.3441   -2.4895 H         1 <0>         0.0944
     52 H22         7.0388   -1.3719   -5.1569 H         1 <0>         0.4289
     53 H23         5.8706    0.7346   -6.0371 H         1 <0>         0.1379
     54 H24         3.6490    1.7188   -6.4210 H         1 <0>         0.1615
     55 H25         1.8580   -1.0516   -3.9001 H         1 <0>         0.1564
     56 H26         4.0187   -2.1348   -3.4425 H         1 <0>         0.1429
     57 H27        11.3889   -6.8565   -1.6490 H         1 <0>         0.4345
@<TRIPOS>BOND
     1    1    6 ar
     2    1    2 ar
     3    1   31 1
     4    2    3 ar
     5    2   32 1
     6    3    4 ar
     7    3   33 1
     8    4   10 1
     9    4    5 ar
    10    5    6 ar
    11    5    7 1
    12    6   34 1
    13    7    8 1
    14    7   35 1
    15    7   36 1
    16    8    9 1
    17    8   37 1
    18    8   38 1
    19    9   10 1
    20    9   11 1
    21    9   39 1
    22   10   40 1
    23   10   41 1
    24   11   12 1
    25   11   42 1
    26   12   17 ar
    27   12   13 ar
    28   13   14 ar
    29   14   15 ar
    30   14   24 1
    31   15   16 ar
    32   16   17 ar
    33   16   18 1
    34   18   23 1
    35   18   19 1
    36   19   20 1
    37   19   43 1
    38   19   44 1
    39   20   21 1
    40   20   45 1
    41   20   46 1
    42   21   22 1
    43   21   47 1
    44   21   57 1
    45   22   23 1
    46   22   48 1
    47   22   49 1
    48   23   50 1
    49   23   51 1
    50   24   25 1
    51   24   52 1
    52   25   30 ar
    53   25   26 ar
    54   26   27 ar
    55   26   53 1
    56   27   28 ar
    57   27   54 1
    58   28   29 ar
    59   29   30 ar
    60   29   55 1
    61   30   56 1
@<TRIPOS>MOLECULE
CHEMBL575555
   50    53     0     0     0
SMALL
USER_CHARGES

@<TRIPOS>ATOM
      1 C1         -0.4724    0.4335    0.0754 C.ar      1 <0>        -0.1041
      2 C2          0.6181    1.2665   -0.0912 C.ar      1 <0>        -0.1205
      3 C3          1.8949    0.7371   -0.1162 C.ar      1 <0>        -0.0967
      4 C4          2.0811   -0.6252    0.0258 C.ar      1 <0>        -0.1212
      5 C5          0.9907   -1.4582    0.1934 C.ar      1 <0>        -0.0973
      6 C6         -0.2861   -0.9290    0.2170 C.ar      1 <0>        -0.1209
      7 C7          3.4729   -1.2025   -0.0024 C.3       1 <0>         0.1780
      8 N1          4.0162   -1.2341    1.3577 N.pl3     1 <0>        -0.6714
      9 C8          5.2862   -1.7255    1.5823 C.ar      1 <0>         0.6579
     10 N2          6.0187   -2.1650    0.5636 N.ar      1 <0>        -0.6492
     11 C9          7.2419   -2.6378    0.7797 C.ar      1 <0>         0.6599
     12 N3          7.7330   -2.6712    2.0146 N.ar      1 <0>        -0.6721
     13 C10         7.0008   -2.2318    3.0332 C.ar      1 <0>         0.6580
     14 N4          5.7791   -1.7542    2.8164 N.ar      1 <0>        -0.6719
     15 N5          7.5107   -2.2665    4.3152 N.pl3     1 <0>        -0.5965
     16 C11         6.7161   -1.7913    5.4584 C.3       1 <0>         0.1051
     17 C12         6.7347   -2.8712    6.5453 C.3       1 <0>        -0.0217
     18 N6          8.1252   -3.2106    6.8730 N.4       1 <0>        -0.5058
     19 C13         8.7812   -3.8135    5.7058 C.3       1 <0>        -0.0213
     20 C14         8.8618   -2.7855    4.5780 C.3       1 <0>         0.1041
     21 N7          8.0031   -3.0951   -0.2793 N.pl3     1 <0>        -0.6208
     22 C15         7.5380   -2.9510   -1.5855 C.ar      1 <0>         0.1995
     23 C16         6.7733   -1.8450   -1.9546 C.ar      1 <0>        -0.1658
     24 C17         6.3322   -1.7397   -3.2571 C.ar      1 <0>         0.1190
     25 N8          6.6250   -2.6686   -4.1477 N.ar      1 <0>        -0.4917
     26 C18         7.3458   -3.7298   -3.8376 C.ar      1 <0>         0.1231
     27 C19         7.8301   -3.9064   -2.5583 C.ar      1 <0>        -0.1988
     28 H1         -1.4695    0.8476    0.0995 H         1 <0>         0.1267
     29 H2          0.4726    2.3309   -0.2022 H         1 <0>         0.1271
     30 H3          2.7468    1.3879   -0.2471 H         1 <0>         0.1241
     31 H4          1.1362   -2.5226    0.3040 H         1 <0>         0.1228
     32 H5         -1.1381   -1.5797    0.3475 H         1 <0>         0.1266
     33 H6          3.4380   -2.2154   -0.4034 H         1 <0>         0.0813
     34 H7          4.1102   -0.5835   -0.6339 H         1 <0>         0.0818
     35 H8          3.4833   -0.9097    2.1005 H         1 <0>         0.4192
     36 H9          7.1504   -0.8710    5.8490 H         1 <0>         0.0950
     37 H10         5.6895   -1.6092    5.1405 H         1 <0>         0.1422
     38 H11         6.2318   -2.4977    7.4373 H         1 <0>         0.1482
     39 H12         6.2192   -3.7606    6.1828 H         1 <0>         0.1343
     40 H13         8.6204   -2.3732    7.1404 H         1 <0>         0.4292
     41 H14         9.7863   -4.1344    5.9792 H         1 <0>         0.1485
     42 H15         8.2038   -4.6743    5.3687 H         1 <0>         0.1341
     43 H16         9.2532   -3.2604    3.6784 H         1 <0>         0.1419
     44 H17         9.5165   -1.9673    4.8783 H         1 <0>         0.0945
     45 H18         8.8611   -3.5163   -0.1137 H         1 <0>         0.4291
     46 H19         6.5296   -1.0816   -1.2305 H         1 <0>         0.1428
     47 H20         5.7394   -0.8864   -3.5519 H         1 <0>         0.1591
     48 H21         7.5628   -4.4673   -4.5962 H         1 <0>         0.1622
     49 H22         8.4235   -4.7745   -2.3123 H         1 <0>         0.1382
     50 H23         8.1383   -3.8657    7.6403 H         1 <0>         0.4344
@<TRIPOS>BOND
     1    1    6 ar
     2    1    2 ar
     3    1   28 1
     4    2    3 ar
     5    2   29 1
     6    3    4 ar
     7    3   30 1
     8    4    5 ar
     9    4    7 1
    10    5    6 ar
    11    5   31 1
    12    6   32 1
    13    7    8 1
    14    7   33 1
    15    7   34 1
    16    8    9 1
    17    8   35 1
    18    9   14 ar
    19    9   10 ar
    20   10   11 ar
    21   11   12 ar
    22   11   21 1
    23   12   13 ar
    24   13   14 ar
    25   13   15 1
    26   15   20 1
    27   15   16 1
    28   16   17 1
    29   16   36 1
    30   16   37 1
    31   17   18 1
    32   17   38 1
    33   17   39 1
    34   18   19 1
    35   18   40 1
    36   18   50 1
    37   19   20 1
    38   19   41 1
    39   19   42 1
    40   20   43 1
    41   20   44 1
    42   21   22 1
    43   21   45 1
    44   22   27 ar
    45   22   23 ar
    46   23   24 ar
    47   23   46 1
    48   24   25 ar
    49   24   47 1
    50   25   26 ar
    51   26   27 ar
    52   26   48 1
    53   27   49 1
@<TRIPOS>MOLECULE
CHEMBL578643
   56    60     0     0     0
SMALL
USER_CHARGES

@<TRIPOS>ATOM
      1 C1          4.2268    3.3790    2.8372 C.ar      1 <0>        -0.1060
      2 C2          5.5880    3.5342    2.6513 C.ar      1 <0>        -0.1087
      3 C3          6.3564    2.4577    2.2538 C.ar      1 <0>        -0.1013
      4 C4          5.7679    1.2222    2.0405 C.ar      1 <0>        -0.1101
      5 C5          4.4071    1.0671    2.2263 C.ar      1 <0>        -0.1029
      6 C6          3.6382    2.1479    2.6250 C.ar      1 <0>        -0.0971
      7 C7          4.0103   -0.3637    1.9320 C.3       1 <0>        -0.0862
      8 C8          5.1896   -0.9531    1.1295 C.3       1 <0>         0.1323
      9 C9          6.3788   -0.0937    1.6089 C.3       1 <0>        -0.0890
     10 N1          5.3965   -2.3634    1.4677 N.pl3     1 <0>        -0.6431
     11 C10         6.0058   -3.2124    0.5569 C.ar      1 <0>         0.5379
     12 C11         6.4299   -2.7333   -0.6793 C.ar      1 <0>        -0.3432
     13 C12         7.0370   -3.6222   -1.5613 C.ar      1 <0>         0.5049
     14 N2          7.1912   -4.8931   -1.1963 N.ar      1 <0>        -0.6007
     15 C13         6.7753   -5.3137   -0.0116 C.ar      1 <0>         0.6785
     16 N3          6.1981   -4.4952    0.8550 N.ar      1 <0>        -0.5670
     17 N4          6.9534   -6.6441    0.3326 N.pl3     1 <0>        -0.6105
     18 C14         6.4047   -7.1375    1.5148 C.ar      1 <0>         0.1651
     19 C15         5.1945   -6.6448    2.0019 C.ar      1 <0>        -0.1593
     20 C16         4.6852   -7.1597    3.1756 C.ar      1 <0>         0.1275
     21 N5          5.3279   -8.1055    3.8347 N.ar      1 <0>        -0.4722
     22 C17         6.4752   -8.5977    3.4064 C.ar      1 <0>         0.1327
     23 C18         7.0486   -8.1407    2.2383 C.ar      1 <0>        -0.1789
     24 N6          7.4748   -3.1901   -2.8036 N.pl3     1 <0>        -0.6172
     25 C19         7.2013   -1.8213   -3.2679 C.3       1 <0>         0.0928
     26 C20         8.5157   -1.2014   -3.7536 C.3       1 <0>        -0.0245
     27 N7          9.1230   -2.0747   -4.7657 N.4       1 <0>        -0.5070
     28 C21         9.4926   -3.3603   -4.1602 C.3       1 <0>        -0.0201
     29 C22         8.2315   -4.0854   -3.6923 C.3       1 <0>         0.0774
     30 H1          3.6252    4.2187    3.1523 H         1 <0>         0.1331
     31 H2          6.0499    4.4964    2.8164 H         1 <0>         0.1318
     32 H3          7.4196    2.5797    2.1085 H         1 <0>         0.1222
     33 H4          2.5749    2.0274    2.7708 H         1 <0>         0.1271
     34 H5          3.8714   -0.9164    2.8612 H         1 <0>         0.0956
     35 H6          3.0977   -0.3883    1.3364 H         1 <0>         0.0951
     36 H7          5.0294   -0.8298    0.0584 H         1 <0>         0.1127
     37 H8          7.0833    0.0660    0.7927 H         1 <0>         0.0802
     38 H9          6.8770   -0.5738    2.4512 H         1 <0>         0.0921
     39 H10         5.1071   -2.7031    2.3289 H         1 <0>         0.4306
     40 H11         6.2908   -1.6965   -0.9478 H         1 <0>         0.1805
     41 H12         7.4601   -7.2320   -0.2493 H         1 <0>         0.4357
     42 H13         4.6637   -5.8707    1.4678 H         1 <0>         0.1452
     43 H14         3.7487   -6.7839    3.5606 H         1 <0>         0.1685
     44 H15         6.9691   -9.3713    3.9756 H         1 <0>         0.1728
     45 H16         7.9852   -8.5512    1.8909 H         1 <0>         0.1463
     46 H17         6.4843   -1.8493   -4.0885 H         1 <0>         0.1201
     47 H18         6.7987   -1.2293   -2.4460 H         1 <0>         0.1414
     48 H19         8.3164   -0.2228   -4.1903 H         1 <0>         0.1627
     49 H20         9.1987   -1.0914   -2.9113 H         1 <0>         0.1431
     50 H21         8.4623   -2.2333   -5.5116 H         1 <0>         0.4351
     51 H22        10.0133   -3.9726   -4.8965 H         1 <0>         0.1616
     52 H23        10.1461   -3.1851   -3.3056 H         1 <0>         0.1419
     53 H24         8.5098   -4.9896   -3.1508 H         1 <0>         0.1191
     54 H25         7.6203   -4.3460   -4.5564 H         1 <0>         0.1224
     55 H26         9.9484   -1.6308   -5.1396 H         1 <0>         0.4469
     56 H27         7.6132   -5.5187   -1.8058 H         1 <0>         0.4317
@<TRIPOS>BOND
     1    1    6 ar
     2    1    2 ar
     3    1   30 1
     4    2    3 ar
     5    2   31 1
     6    3    4 ar
     7    3   32 1
     8    4    9 1
     9    4    5 ar
    10    5    6 ar
    11    5    7 1
    12    6   33 1
    13    7    8 1
    14    7   34 1
    15    7   35 1
    16    8    9 1
    17    8   10 1
    18    8   36 1
    19    9   37 1
    20    9   38 1
    21   10   11 1
    22   10   39 1
    23   11   16 ar
    24   11   12 ar
    25   12   13 ar
    26   12   40 1
    27   13   14 ar
    28   13   24 1
    29   14   15 ar
    30   14   56 1
    31   15   16 ar
    32   15   17 1
    33   17   18 1
    34   17   41 1
    35   18   23 ar
    36   18   19 ar
    37   19   20 ar
    38   19   42 1
    39   20   21 ar
    40   20   43 1
    41   21   22 ar
    42   22   23 ar
    43   22   44 1
    44   23   45 1
    45   24   29 1
    46   24   25 1
    47   25   26 1
    48   25   46 1
    49   25   47 1
    50   26   27 1
    51   26   48 1
    52   26   49 1
    53   27   28 1
    54   27   50 1
    55   27   55 1
    56   28   29 1
    57   28   51 1
    58   28   52 1
    59   29   53 1
    60   29   54 1
@<TRIPOS>MOLECULE
CHEMBL578643__1
   56    60     0     0     0
SMALL
USER_CHARGES

@<TRIPOS>ATOM
      1 C1          0.1445    1.3669    0.1831 C.ar      1 <0>        -0.1057
      2 C2          1.3393    2.0622    0.1687 C.ar      1 <0>        -0.1067
      3 C3          2.5364    1.3745    0.1293 C.ar      1 <0>        -0.0998
      4 C4          2.5442   -0.0102    0.1042 C.ar      1 <0>        -0.1093
      5 C5          1.3497   -0.7053    0.1185 C.ar      1 <0>        -0.1064
      6 C6          0.1503   -0.0139    0.1581 C.ar      1 <0>        -0.0971
      7 C7          1.6233   -2.1937    0.0854 C.3       1 <0>        -0.0847
      8 C8          3.0857   -2.3251   -0.3903 C.3       1 <0>         0.1389
      9 C9          3.7024   -0.9839    0.0606 C.3       1 <0>        -0.0907
     10 N1          3.7492   -3.4516    0.2708 N.pl3     1 <0>        -0.6739
     11 C10         4.8291   -4.0733   -0.3365 C.ar      1 <0>         0.5245
     12 C11         5.2945   -3.6310   -1.5716 C.ar      1 <0>        -0.3628
     13 C12         6.3817   -4.2854   -2.1427 C.ar      1 <0>         0.5383
     14 N2          6.9374   -5.3061   -1.4936 N.ar      1 <0>        -0.5802
     15 C13         6.4679   -5.6997   -0.3196 C.ar      1 <0>         0.6856
     16 N3          5.4384   -5.0974    0.2562 N.ar      1 <0>        -0.5962
     17 N4          7.0729   -6.7662    0.3258 N.pl3     1 <0>        -0.6119
     18 C14         8.2327   -7.3320   -0.2004 C.ar      1 <0>         0.1710
     19 C15         9.1817   -6.5439   -0.8507 C.ar      1 <0>        -0.1662
     20 C16        10.3162   -7.1425   -1.3575 C.ar      1 <0>         0.1216
     21 N5         10.5086   -8.4423   -1.2330 N.ar      1 <0>        -0.4734
     22 C17         9.6344   -9.2217   -0.6245 C.ar      1 <0>         0.1347
     23 C18         8.4772   -8.7001   -0.0852 C.ar      1 <0>        -0.1764
     24 N6          6.8791   -3.8801   -3.3715 N.pl3     1 <0>        -0.5888
     25 C19         8.0273   -4.5645   -3.9858 C.3       1 <0>         0.0854
     26 C20         7.6623   -4.9247   -5.4297 C.3       1 <0>        -0.0230
     27 N7          7.2268   -3.7155   -6.1397 N.4       1 <0>        -0.5079
     28 C21         5.9913   -3.1993   -5.5370 C.3       1 <0>        -0.0226
     29 C22         6.2699   -2.7572   -4.1010 C.3       1 <0>         0.0865
     30 H1         -0.7924    1.9029    0.2185 H         1 <0>         0.1337
     31 H2          1.3367    3.1420    0.1878 H         1 <0>         0.1330
     32 H3          3.4694    1.9183    0.1177 H         1 <0>         0.1242
     33 H4         -0.7836   -0.5564    0.1698 H         1 <0>         0.1268
     34 H5          1.5097   -2.6214    1.0815 H         1 <0>         0.0930
     35 H6          0.9513   -2.6863   -0.6174 H         1 <0>         0.0951
     36 H7          3.1328   -2.4282   -1.4744 H         1 <0>         0.1168
     37 H8          4.4499   -0.6504   -0.6592 H         1 <0>         0.0853
     38 H9          4.1480   -1.0861    1.0500 H         1 <0>         0.0912
     39 H10         3.4328   -3.7625    1.1334 H         1 <0>         0.4254
     40 H11         4.8227   -2.7999   -2.0748 H         1 <0>         0.1791
     41 H12         6.6892   -7.1190    1.1438 H         1 <0>         0.4399
     42 H13         9.0303   -5.4798   -0.9564 H         1 <0>         0.1440
     43 H14        11.0564   -6.5400   -1.8630 H         1 <0>         0.1659
     44 H15         9.8299  -10.2808   -0.5440 H         1 <0>         0.1736
     45 H16         7.7683   -9.3427    0.4157 H         1 <0>         0.1485
     46 H17         8.8935   -3.9029   -3.9811 H         1 <0>         0.1110
     47 H18         8.2536   -5.4730   -3.4277 H         1 <0>         0.1455
     48 H19         8.5339   -5.3462   -5.9305 H         1 <0>         0.1571
     49 H20         6.8544   -5.6564   -5.4286 H         1 <0>         0.1385
     50 H21         7.9484   -3.0129   -6.0787 H         1 <0>         0.4335
     51 H22         5.6316   -2.3494   -6.1169 H         1 <0>         0.1587
     52 H23         5.2340   -3.9832   -5.5327 H         1 <0>         0.1399
     53 H24         5.3350   -2.4714   -3.6190 H         1 <0>         0.1356
     54 H25         6.9557   -1.9100   -4.1082 H         1 <0>         0.1164
     55 H26         7.0589   -3.9384   -7.1093 H         1 <0>         0.4434
     56 H27         5.1222   -5.4090    1.1187 H         1 <0>         0.4423
@<TRIPOS>BOND
     1    1    6 ar
     2    1    2 ar
     3    1   30 1
     4    2    3 ar
     5    2   31 1
     6    3    4 ar
     7    3   32 1
     8    4    9 1
     9    4    5 ar
    10    5    6 ar
    11    5    7 1
    12    6   33 1
    13    7    8 1
    14    7   34 1
    15    7   35 1
    16    8    9 1
    17    8   10 1
    18    8   36 1
    19    9   37 1
    20    9   38 1
    21   10   11 1
    22   10   39 1
    23   11   16 ar
    24   11   12 ar
    25   12   13 ar
    26   12   40 1
    27   13   14 ar
    28   13   24 1
    29   14   15 ar
    30   15   16 ar
    31   15   17 1
    32   16   56 1
    33   17   18 1
    34   17   41 1
    35   18   23 ar
    36   18   19 ar
    37   19   20 ar
    38   19   42 1
    39   20   21 ar
    40   20   43 1
    41   21   22 ar
    42   22   23 ar
    43   22   44 1
    44   23   45 1
    45   24   29 1
    46   24   25 1
    47   25   26 1
    48   25   46 1
    49   25   47 1
    50   26   27 1
    51   26   48 1
    52   26   49 1
    53   27   28 1
    54   27   50 1
    55   27   55 1
    56   28   29 1
    57   28   51 1
    58   28   52 1
    59   29   53 1
    60   29   54 1
@<TRIPOS>MOLECULE
CHEMBL578643__2
   55    59     0     0     0
SMALL
USER_CHARGES

@<TRIPOS>ATOM
      1 C1         -0.2510    1.2689    0.3983 C.ar      1 <0>        -0.1143
      2 C2          0.9162    2.0084    0.3528 C.ar      1 <0>        -0.1141
      3 C3          2.1358    1.3663    0.2658 C.ar      1 <0>        -0.1050
      4 C4          2.1939   -0.0168    0.2238 C.ar      1 <0>        -0.1001
      5 C5          1.0270   -0.7561    0.2692 C.ar      1 <0>        -0.0998
      6 C6         -0.1952   -0.1104    0.3566 C.ar      1 <0>        -0.1017
      7 C7          1.3541   -2.2328    0.2092 C.3       1 <0>        -0.0870
      8 C8          2.8037   -2.3044   -0.3159 C.3       1 <0>         0.1556
      9 C9          3.3851   -0.9461    0.1304 C.3       1 <0>        -0.0946
     10 N1          3.5300   -3.4125    0.3094 N.pl3     1 <0>        -0.6960
     11 C10         4.6113   -3.9869   -0.3405 C.ar      1 <0>         0.5054
     12 C11         5.0185   -3.5143   -1.5849 C.ar      1 <0>        -0.3942
     13 C12         6.1094   -4.1215   -2.1994 C.ar      1 <0>         0.4938
     14 N2          6.7238   -5.1278   -1.5812 N.ar      1 <0>        -0.6435
     15 C13         6.3086   -5.5512   -0.3972 C.ar      1 <0>         0.6401
     16 N3          5.2773   -4.9939    0.2194 N.ar      1 <0>        -0.6258
     17 N4          6.9738   -6.6012    0.2151 N.pl3     1 <0>        -0.6318
     18 C14         6.4820   -7.1397    1.4027 C.ar      1 <0>         0.2057
     19 C15         5.1099   -7.2172    1.6389 C.ar      1 <0>        -0.1669
     20 C16         4.6639   -7.7570    2.8271 C.ar      1 <0>         0.1170
     21 N5          5.5172   -8.1962    3.7333 N.ar      1 <0>        -0.4950
     22 C17         6.8227   -8.1403    3.5471 C.ar      1 <0>         0.1223
     23 C18         7.3493   -7.6202    2.3834 C.ar      1 <0>        -0.2023
     24 N6          6.5503   -3.6847   -3.4389 N.pl3     1 <0>        -0.6178
     25 C19         7.7021   -4.3189   -4.0987 C.3       1 <0>         0.1008
     26 C20         7.3030   -4.6773   -5.5340 C.3       1 <0>        -0.0227
     27 N7          6.7993   -3.4778   -6.2149 N.4       1 <0>        -0.5050
     28 C21         5.5662   -3.0149   -5.5659 C.3       1 <0>        -0.0223
     29 C22         5.8758   -2.5779   -4.1347 C.3       1 <0>         0.0992
     30 H1         -1.2054    1.7692    0.4709 H         1 <0>         0.1281
     31 H2          0.8743    3.0871    0.3849 H         1 <0>         0.1274
     32 H3          3.0472    1.9446    0.2300 H         1 <0>         0.1207
     33 H4         -1.1074   -0.6874    0.3925 H         1 <0>         0.1233
     34 H5          1.2897   -2.6752    1.2033 H         1 <0>         0.0907
     35 H6          0.6777   -2.7425   -0.4769 H         1 <0>         0.0866
     36 H7          2.8183   -2.3941   -1.4021 H         1 <0>         0.0986
     37 H8          4.0954   -0.5772   -0.6095 H         1 <0>         0.0769
     38 H9          3.8670   -1.0423    1.1033 H         1 <0>         0.0886
     39 H10         3.2542   -3.7442    1.1782 H         1 <0>         0.4137
     40 H11         4.4998   -2.6961   -2.0623 H         1 <0>         0.1386
     41 H12         7.7816   -6.9616   -0.1829 H         1 <0>         0.4266
     42 H13         4.4063   -6.8593    0.9018 H         1 <0>         0.1418
     43 H14         3.6030   -7.8207    3.0188 H         1 <0>         0.1576
     44 H15         7.4869   -8.5106    4.3140 H         1 <0>         0.1610
     45 H16         8.4184   -7.5819    2.2353 H         1 <0>         0.1372
     46 H17         8.5427   -3.6253   -4.1146 H         1 <0>         0.0901
     47 H18         7.9805   -5.2241   -3.5591 H         1 <0>         0.1396
     48 H19         8.1725   -5.0603   -6.0681 H         1 <0>         0.1459
     49 H20         6.5234   -5.4388   -5.5151 H         1 <0>         0.1342
     50 H21         7.4959   -2.7492   -6.1693 H         1 <0>         0.4290
     51 H22         5.1560   -2.1730   -6.1235 H         1 <0>         0.1479
     52 H23         4.8391   -3.8268   -5.5460 H         1 <0>         0.1355
     53 H24         4.9474   -2.3326   -3.6189 H         1 <0>         0.1300
     54 H25         6.5289   -1.7054   -4.1543 H         1 <0>         0.0961
     55 H26         6.6077   -3.6965   -7.1811 H         1 <0>         0.4344
@<TRIPOS>BOND
     1    1    6 ar
     2    1    2 ar
     3    1   30 1
     4    2    3 ar
     5    2   31 1
     6    3    4 ar
     7    3   32 1
     8    4    9 1
     9    4    5 ar
    10    5    6 ar
    11    5    7 1
    12    6   33 1
    13    7    8 1
    14    7   34 1
    15    7   35 1
    16    8    9 1
    17    8   10 1
    18    8   36 1
    19    9   37 1
    20    9   38 1
    21   10   11 1
    22   10   39 1
    23   11   16 ar
    24   11   12 ar
    25   12   13 ar
    26   12   40 1
    27   13   14 ar
    28   13   24 1
    29   14   15 ar
    30   15   16 ar
    31   15   17 1
    32   17   18 1
    33   17   41 1
    34   18   23 ar
    35   18   19 ar
    36   19   20 ar
    37   19   42 1
    38   20   21 ar
    39   20   43 1
    40   21   22 ar
    41   22   23 ar
    42   22   44 1
    43   23   45 1
    44   24   29 1
    45   24   25 1
    46   25   26 1
    47   25   46 1
    48   25   47 1
    49   26   27 1
    50   26   48 1
    51   26   49 1
    52   27   28 1
    53   27   50 1
    54   27   55 1
    55   28   29 1
    56   28   51 1
    57   28   52 1
    58   29   53 1
    59   29   54 1
@<TRIPOS>MOLECULE
CHEMBL575340
   55    59     0     0     0
SMALL
USER_CHARGES

@<TRIPOS>ATOM
      1 C1          0.1035    1.3639    0.2592 C.ar      1 <0>        -0.1149
      2 C2          1.3270    1.9947    0.3876 C.ar      1 <0>        -0.1134
      3 C3          2.4916    1.2533    0.3519 C.ar      1 <0>        -0.1042
      4 C4          2.4383   -0.1209    0.1878 C.ar      1 <0>        -0.0986
      5 C5          1.2151   -0.7515    0.0594 C.ar      1 <0>        -0.1015
      6 C6          0.0483   -0.0063    0.0956 C.ar      1 <0>        -0.1020
      7 C7          1.4226   -2.2416   -0.1069 C.3       1 <0>        -0.0845
      8 C8          2.9056   -2.4012   -0.5036 C.3       1 <0>         0.1517
      9 C9          3.5515   -1.1441    0.1167 C.3       1 <0>        -0.0950
     10 N1          3.4725   -3.6197    0.0796 N.pl3     1 <0>        -0.6950
     11 C10         4.5606   -4.2340   -0.5205 C.ar      1 <0>         0.5064
     12 C11         5.1256   -3.6977   -1.6743 C.ar      1 <0>        -0.3779
     13 C12         6.2165   -4.3485   -2.2416 C.ar      1 <0>         0.4918
     14 N2          6.6815   -5.4554   -1.6665 N.ar      1 <0>        -0.6354
     15 C13         6.1188   -5.9372   -0.5688 C.ar      1 <0>         0.6325
     16 N3          5.0826   -5.3412    0.0019 N.ar      1 <0>        -0.6436
     17 N4          6.6301   -7.0905   -0.0000 N.pl3     1 <0>        -0.6035
     18 C14         6.0321   -7.6636    1.2157 C.3       1 <0>         0.1079
     19 C15         5.7684   -9.1532    0.9715 C.3       1 <0>        -0.0222
     20 N5          7.0120   -9.8054    0.5424 N.4       1 <0>        -0.5054
     21 C16         7.4403   -9.2625   -0.7530 C.3       1 <0>        -0.0220
     22 C17         7.7832   -7.7815   -0.5974 C.3       1 <0>         0.1040
     23 N6          6.8119   -3.8507   -3.3921 N.pl3     1 <0>        -0.6460
     24 C18         7.9750   -4.4386   -3.8850 C.ar      1 <0>         0.2057
     25 C19         8.2357   -4.4700   -5.2546 C.ar      1 <0>        -0.2057
     26 C20         9.3987   -5.0610   -5.7020 C.ar      1 <0>         0.1247
     27 N7         10.2580   -5.5921   -4.8524 N.ar      1 <0>        -0.4982
     28 C21        10.0474   -5.5823   -3.5495 C.ar      1 <0>         0.1126
     29 C22         8.9114   -5.0057   -3.0212 C.ar      1 <0>        -0.1787
     30 H1         -0.8085    1.9416    0.2914 H         1 <0>         0.1280
     31 H2          1.3720    3.0662    0.5152 H         1 <0>         0.1277
     32 H3          3.4471    1.7467    0.4519 H         1 <0>         0.1217
     33 H4         -0.9079   -0.4983   -0.0042 H         1 <0>         0.1226
     34 H5          1.2246   -2.7582    0.8323 H         1 <0>         0.0878
     35 H6          0.7765   -2.6278   -0.8953 H         1 <0>         0.0864
     36 H7          3.0189   -2.4002   -1.5877 H         1 <0>         0.1037
     37 H8          4.3590   -0.7810   -0.5190 H         1 <0>         0.0804
     38 H9          3.9262   -1.3655    1.1161 H         1 <0>         0.0870
     39 H10         3.0864   -3.9966    0.8857 H         1 <0>         0.4105
     40 H11         4.7262   -2.7980   -2.1187 H         1 <0>         0.1434
     41 H12         6.7201   -7.5459    2.0529 H         1 <0>         0.0915
     42 H13         5.0926   -7.1567    1.4358 H         1 <0>         0.1406
     43 H14         5.4148   -9.6155    1.8931 H         1 <0>         0.1460
     44 H15         5.0121   -9.2658    0.1947 H         1 <0>         0.1333
     45 H16         7.7318   -9.6397    1.2297 H         1 <0>         0.4287
     46 H17         8.3186   -9.8055   -1.1021 H         1 <0>         0.1470
     47 H18         6.6334   -9.3719   -1.4776 H         1 <0>         0.1332
     48 H19         8.0009   -7.3525   -1.5754 H         1 <0>         0.1412
     49 H20         8.6511   -7.6759    0.0536 H         1 <0>         0.0920
     50 H21         6.4183   -3.0934   -3.8531 H         1 <0>         0.4272
     51 H22         7.5364   -4.0380   -5.9552 H         1 <0>         0.1377
     52 H23         9.6089   -5.0899   -6.7609 H         1 <0>         0.1608
     53 H24        10.7758   -6.0282   -2.8884 H         1 <0>         0.1548
     54 H25         8.7473   -4.9974   -1.9538 H         1 <0>         0.1439
     55 H26         6.8565  -10.7985    0.4546 H         1 <0>         0.4334
@<TRIPOS>BOND
     1    1    6 ar
     2    1    2 ar
     3    1   30 1
     4    2    3 ar
     5    2   31 1
     6    3    4 ar
     7    3   32 1
     8    4    9 1
     9    4    5 ar
    10    5    6 ar
    11    5    7 1
    12    6   33 1
    13    7    8 1
    14    7   34 1
    15    7   35 1
    16    8    9 1
    17    8   10 1
    18    8   36 1
    19    9   37 1
    20    9   38 1
    21   10   11 1
    22   10   39 1
    23   11   16 ar
    24   11   12 ar
    25   12   13 ar
    26   12   40 1
    27   13   14 ar
    28   13   23 1
    29   14   15 ar
    30   15   16 ar
    31   15   17 1
    32   17   22 1
    33   17   18 1
    34   18   19 1
    35   18   41 1
    36   18   42 1
    37   19   20 1
    38   19   43 1
    39   19   44 1
    40   20   21 1
    41   20   45 1
    42   20   55 1
    43   21   22 1
    44   21   46 1
    45   21   47 1
    46   22   48 1
    47   22   49 1
    48   23   24 1
    49   23   50 1
    50   24   29 ar
    51   24   25 ar
    52   25   26 ar
    53   25   51 1
    54   26   27 ar
    55   26   52 1
    56   27   28 ar
    57   28   29 ar
    58   28   53 1
    59   29   54 1
@<TRIPOS>MOLECULE
CHEMBL575340__1
   56    60     0     0     0
SMALL
USER_CHARGES

@<TRIPOS>ATOM
      1 C1          0.9551    2.3276    0.3069 C.ar      1 <0>        -0.1070
      2 C2          2.0668    2.9653   -0.2116 C.ar      1 <0>        -0.1072
      3 C3          3.2450    2.2655   -0.3835 C.ar      1 <0>        -0.0993
      4 C4          3.3170    0.9263   -0.0381 C.ar      1 <0>        -0.1064
      5 C5          2.2056    0.2887    0.4802 C.ar      1 <0>        -0.1054
      6 C6          1.0249    0.9922    0.6519 C.ar      1 <0>        -0.0977
      7 C7          2.5369   -1.1585    0.7750 C.3       1 <0>        -0.0829
      8 C8          3.8275   -1.4476   -0.0206 C.3       1 <0>         0.1288
      9 C9          4.4713   -0.0489   -0.1269 C.3       1 <0>        -0.0908
     10 N1          4.6984   -2.3671    0.7160 N.pl3     1 <0>        -0.6413
     11 C10         5.6110   -3.1549    0.0320 C.ar      1 <0>         0.5361
     12 C11         5.7118   -3.0756   -1.3543 C.ar      1 <0>        -0.3410
     13 C12         6.6421   -3.8854   -1.9980 C.ar      1 <0>         0.4997
     14 N2          7.4004   -4.7043   -1.2722 N.ar      1 <0>        -0.5991
     15 C13         7.2769   -4.7536    0.0453 C.ar      1 <0>         0.6824
     16 N3          6.4064   -3.9932    0.6922 N.ar      1 <0>        -0.5788
     17 N4          8.0823   -5.6182    0.7656 N.pl3     1 <0>        -0.6012
     18 C14         7.8960   -5.7956    2.2141 C.3       1 <0>         0.1011
     19 C15         7.8114   -7.2961    2.5127 C.3       1 <0>        -0.0242
     20 N5          8.9961   -7.9704    1.9669 N.4       1 <0>        -0.5075
     21 C16         9.0049   -7.8589    0.5028 C.3       1 <0>        -0.0205
     22 C17         9.1450   -6.3905    0.1036 C.3       1 <0>         0.0820
     23 N6          6.7774   -3.8405   -3.3784 N.pl3     1 <0>        -0.6307
     24 C18         6.1192   -2.8551   -4.1113 C.ar      1 <0>         0.1630
     25 C19         6.0385   -1.5457   -3.6383 C.ar      1 <0>        -0.2001
     26 C20         5.3785   -0.5997   -4.3943 C.ar      1 <0>         0.1369
     27 N7          4.8278   -0.9209   -5.5499 N.ar      1 <0>        -0.4687
     28 C21         4.8825   -2.1486   -6.0315 C.ar      1 <0>         0.1409
     29 C22         5.5290   -3.1513   -5.3396 C.ar      1 <0>        -0.1752
     30 H1          0.0342    2.8744    0.4462 H         1 <0>         0.1325
     31 H2          2.0138    4.0094   -0.4823 H         1 <0>         0.1323
     32 H3          4.1129    2.7643   -0.7889 H         1 <0>         0.1245
     33 H4          0.1562    0.4948    1.0572 H         1 <0>         0.1257
     34 H5          2.7113   -1.2968    1.8420 H         1 <0>         0.0929
     35 H6          1.7299   -1.8080    0.4356 H         1 <0>         0.0936
     36 H7          3.5931   -1.8424   -1.0091 H         1 <0>         0.1149
     37 H8          4.9852    0.0593   -1.0821 H         1 <0>         0.0846
     38 H9          5.1661    0.1114    0.6975 H         1 <0>         0.0917
     39 H10         4.6363   -2.4246    1.6823 H         1 <0>         0.4276
     40 H11         5.0826   -2.4016   -1.9167 H         1 <0>         0.1890
     41 H12         8.7422   -5.3631    2.7479 H         1 <0>         0.1164
     42 H13         6.9732   -5.3072    2.5272 H         1 <0>         0.1527
     43 H14         7.7698   -7.4504    3.5909 H         1 <0>         0.1622
     44 H15         6.9138   -7.7084    2.0516 H         1 <0>         0.1408
     45 H16         9.8286   -7.5401    2.3408 H         1 <0>         0.4352
     46 H17         9.8429   -8.4278    0.1000 H         1 <0>         0.1627
     47 H18         8.0713   -8.2541    0.1025 H         1 <0>         0.1414
     48 H19         9.0476   -6.2952   -0.9778 H         1 <0>         0.1179
     49 H20        10.1195   -6.0191    0.4207 H         1 <0>         0.1268
     50 H21         7.3302   -4.4952   -3.8331 H         1 <0>         0.4306
     51 H22         6.4864   -1.2763   -2.6932 H         1 <0>         0.1447
     52 H23         5.3111    0.4169   -4.0358 H         1 <0>         0.1721
     53 H24         4.4184   -2.3699   -6.9812 H         1 <0>         0.1758
     54 H25         5.5737   -4.1528   -5.7413 H         1 <0>         0.1495
     55 H26         8.9775   -8.9447    2.2286 H         1 <0>         0.4462
     56 H27         8.0512   -5.2719   -1.7140 H         1 <0>         0.4306
@<TRIPOS>BOND
     1    1    6 ar
     2    1    2 ar
     3    1   30 1
     4    2    3 ar
     5    2   31 1
     6    3    4 ar
     7    3   32 1
     8    4    9 1
     9    4    5 ar
    10    5    6 ar
    11    5    7 1
    12    6   33 1
    13    7    8 1
    14    7   34 1
    15    7   35 1
    16    8    9 1
    17    8   10 1
    18    8   36 1
    19    9   37 1
    20    9   38 1
    21   10   11 1
    22   10   39 1
    23   11   16 ar
    24   11   12 ar
    25   12   13 ar
    26   12   40 1
    27   13   14 ar
    28   13   23 1
    29   14   15 ar
    30   14   56 1
    31   15   16 ar
    32   15   17 1
    33   17   22 1
    34   17   18 1
    35   18   19 1
    36   18   41 1
    37   18   42 1
    38   19   20 1
    39   19   43 1
    40   19   44 1
    41   20   21 1
    42   20   45 1
    43   20   55 1
    44   21   22 1
    45   21   46 1
    46   21   47 1
    47   22   48 1
    48   22   49 1
    49   23   24 1
    50   23   50 1
    51   24   29 ar
    52   24   25 ar
    53   25   26 ar
    54   25   51 1
    55   26   27 ar
    56   26   52 1
    57   27   28 ar
    58   28   29 ar
    59   28   53 1
    60   29   54 1
@<TRIPOS>MOLECULE
CHEMBL575962
   50    53     0     0     0
SMALL
USER_CHARGES

@<TRIPOS>ATOM
      1 C1          1.0918   -0.4272   -0.7676 C.ar      1 <0>        -0.1677
      2 C2          2.2472    0.3260   -0.7596 C.ar      1 <0>         0.1185
      3 N1          2.3279    1.4337   -0.0465 N.ar      1 <0>        -0.4915
      4 C3          1.3182    1.8679    0.6841 C.ar      1 <0>         0.1230
      5 C4          0.1281    1.1724    0.7301 C.ar      1 <0>        -0.1993
      6 C5          0.0014   -0.0032   -0.0089 C.ar      1 <0>         0.1996
      7 N2         -1.1846   -0.7354    0.0099 N.pl3     1 <0>        -0.6209
      8 C6         -1.1485   -2.1125   -0.1022 C.ar      1 <0>         0.6585
      9 N3          0.0190   -2.7481   -0.1119 N.ar      1 <0>        -0.6473
     10 C7          0.0538   -4.0726   -0.2192 C.ar      1 <0>         0.6581
     11 N4         -1.0790   -4.7615   -0.3169 N.ar      1 <0>        -0.6733
     12 C8         -2.2463   -4.1259   -0.3072 C.ar      1 <0>         0.6576
     13 N5         -2.2812   -2.8016   -0.1948 N.ar      1 <0>        -0.6726
     14 N6         -3.4224   -4.8410   -0.4087 N.pl3     1 <0>        -0.5967
     15 C9         -3.4084   -6.3077   -0.5222 C.3       1 <0>         0.1053
     16 C10        -4.3721   -6.8847    0.5199 C.3       1 <0>        -0.0216
     17 N7         -5.6976   -6.2762    0.3494 N.4       1 <0>        -0.5058
     18 C11        -5.6270   -4.8368    0.6308 C.3       1 <0>        -0.0212
     19 C12        -4.7257   -4.1588   -0.4002 C.3       1 <0>         0.1041
     20 N8          1.2659   -4.7324   -0.2297 N.pl3     1 <0>        -0.6691
     21 C13         2.5142   -3.9732   -0.1225 C.3       1 <0>         0.1511
     22 C14         2.9878   -3.5344   -1.5236 C.3       1 <0>        -0.1348
     23 C15         4.5304   -3.6577   -1.4590 C.3       1 <0>        -0.1258
     24 C16         4.7358   -4.9375   -0.6109 C.3       1 <0>        -0.1254
     25 C17         3.6256   -4.8653    0.4578 C.3       1 <0>        -0.1327
     26 H1          1.0309   -1.3303   -1.3568 H         1 <0>         0.1455
     27 H2          3.0969    0.0050   -1.3439 H         1 <0>         0.1582
     28 H3          1.4254    2.7793    1.2536 H         1 <0>         0.1622
     29 H4         -0.6941    1.5332    1.3303 H         1 <0>         0.1381
     30 H5         -2.0353   -0.2784    0.1016 H         1 <0>         0.4289
     31 H6         -3.7309   -6.6008   -1.5213 H         1 <0>         0.0948
     32 H7         -2.4011   -6.6799   -0.3354 H         1 <0>         0.1421
     33 H8         -4.4478   -7.9639    0.3867 H         1 <0>         0.1482
     34 H9         -3.9983   -6.6672    1.5204 H         1 <0>         0.1341
     35 H10        -6.0115   -6.4172   -0.5991 H         1 <0>         0.4292
     36 H11        -6.6273   -4.4070    0.5794 H         1 <0>         0.1485
     37 H12        -5.2152   -4.6812    1.6280 H         1 <0>         0.1340
     38 H13        -4.5888   -3.1110   -0.1326 H         1 <0>         0.1419
     39 H14        -5.1835   -4.2312   -1.3867 H         1 <0>         0.0944
     40 H15         1.2913   -5.6989   -0.3080 H         1 <0>         0.4164
     41 H16         2.3664   -3.1000    0.5129 H         1 <0>         0.0995
     42 H17         2.5837   -4.1980   -2.2880 H         1 <0>         0.0688
     43 H18         2.6955   -2.5027   -1.7193 H         1 <0>         0.0730
     44 H19         4.9499   -3.7843   -2.4570 H         1 <0>         0.0726
     45 H20         4.9668   -2.7911   -0.9624 H         1 <0>         0.0737
     46 H21         4.6140   -5.8277   -1.2280 H         1 <0>         0.0680
     47 H22         5.7191   -4.9297   -0.1407 H         1 <0>         0.0728
     48 H23         4.0178   -4.4246    1.3743 H         1 <0>         0.0794
     49 H24         3.2362   -5.8631    0.6596 H         1 <0>         0.0712
     50 H25        -6.3499   -6.7104    0.9850 H         1 <0>         0.4344
@<TRIPOS>BOND
     1    1    6 ar
     2    1    2 ar
     3    1   26 1
     4    2    3 ar
     5    2   27 1
     6    3    4 ar
     7    4    5 ar
     8    4   28 1
     9    5    6 ar
    10    5   29 1
    11    6    7 1
    12    7    8 1
    13    7   30 1
    14    8   13 ar
    15    8    9 ar
    16    9   10 ar
    17   10   11 ar
    18   10   20 1
    19   11   12 ar
    20   12   13 ar
    21   12   14 1
    22   14   19 1
    23   14   15 1
    24   15   16 1
    25   15   31 1
    26   15   32 1
    27   16   17 1
    28   16   33 1
    29   16   34 1
    30   17   18 1
    31   17   35 1
    32   17   50 1
    33   18   19 1
    34   18   36 1
    35   18   37 1
    36   19   38 1
    37   19   39 1
    38   20   21 1
    39   20   40 1
    40   21   25 1
    41   21   22 1
    42   21   41 1
    43   22   23 1
    44   22   42 1
    45   22   43 1
    46   23   24 1
    47   23   44 1
    48   23   45 1
    49   24   25 1
    50   24   46 1
    51   24   47 1
    52   25   48 1
    53   25   49 1
@<TRIPOS>MOLECULE
CHEMBL1080071
   34    37     0     0     0
SMALL
USER_CHARGES

@<TRIPOS>ATOM
      1 C1          0.0001    1.4704   -0.0547 C.ar      1 <0>        -0.1488
      2 C2          1.1957    2.1552   -0.0342 C.ar      1 <0>        -0.0686
      3 C3          2.3947    1.4560   -0.0282 C.ar      1 <0>         0.0239
      4 C4          2.3897    0.0493   -0.0429 C.ar      1 <0>         0.1006
      5 C5          1.1698   -0.6350   -0.0632 C.ar      1 <0>        -0.1561
      6 C6         -0.0146    0.0766   -0.0694 C.ar      1 <0>         0.2128
      7 N1         -1.2359   -0.6057   -0.0897 N.pl3     1 <0>        -0.8764
      8 N2          3.6821   -0.3557   -0.0332 N.2       1 <0>        -0.4684
      9 C7          4.4716    0.6897   -0.0137 C.2       1 <0>         0.3210
     10 N3          3.7238    1.8356   -0.0099 N.pl3     1 <0>        -0.4483
     11 C8          4.2359    3.2081    0.0104 C.3       1 <0>         0.0990
     12 C9          3.4869    4.1307    0.9864 C.3       1 <0>        -0.1510
     13 C10         3.5922    5.2242   -0.0897 C.3       1 <0>        -0.1354
     14 C11         3.6831    4.0886   -1.1227 C.3       1 <0>        -0.1477
     15 C12         5.9502    0.6389    0.0017 C.2       1 <0>         0.1432
     16 C13         6.7685   -0.5754    0.1109 C.2       1 <0>         0.3638
     17 N4          8.0252   -0.2258    0.0902 N.2       1 <0>        -0.3527
     18 O1          8.0843    1.1843   -0.0293 O.3       1 <0>         0.0387
     19 N5          6.7538    1.6675   -0.0853 N.2       1 <0>        -0.2585
     20 N6          6.2871   -1.8735    0.2183 N.pl3     1 <0>        -0.8012
     21 H1         -0.9314    2.0170   -0.0548 H         1 <0>         0.1337
     22 H2          1.1998    3.2351   -0.0233 H         1 <0>         0.1298
     23 H3          1.1538   -1.7148   -0.0748 H         1 <0>         0.1316
     24 H4         -2.0690   -0.1090   -0.0935 H         1 <0>         0.4002
     25 H5         -1.2494   -1.5756   -0.1000 H         1 <0>         0.4006
     26 H6          5.3204    3.2538    0.1094 H         1 <0>         0.1394
     27 H7          2.4636    3.8140    1.1885 H         1 <0>         0.0956
     28 H8          4.0485    4.3550    1.8933 H         1 <0>         0.0821
     29 H9          2.6916    5.8306   -0.1856 H         1 <0>         0.0822
     30 H10         4.5006    5.8221   -0.0171 H         1 <0>         0.0914
     31 H11         4.4031    4.2790   -1.9186 H         1 <0>         0.0823
     32 H12         2.7135    3.7605   -1.4973 H         1 <0>         0.0924
     33 H13         5.3310   -2.0372    0.2257 H         1 <0>         0.4315
     34 H14         6.9069   -2.6166    0.2859 H         1 <0>         0.4177
@<TRIPOS>BOND
     1    1    6 ar
     2    1    2 ar
     3    1   21 1
     4    2    3 ar
     5    2   22 1
     6    3   10 1
     7    3    4 ar
     8    4    5 ar
     9    4    8 1
    10    5    6 ar
    11    5   23 1
    12    6    7 1
    13    7   24 1
    14    7   25 1
    15    8    9 2
    16    9   10 1
    17    9   15 1
    18   10   11 1
    19   11   14 1
    20   11   12 1
    21   11   26 1
    22   12   13 1
    23   12   27 1
    24   12   28 1
    25   13   14 1
    26   13   29 1
    27   13   30 1
    28   14   31 1
    29   14   32 1
    30   15   19 2
    31   15   16 1
    32   16   17 2
    33   16   20 1
    34   17   18 1
    35   18   19 1
    36   20   33 1
    37   20   34 1
@<TRIPOS>MOLECULE
CHEMBL1080071__1
   35    38     0     0     0
SMALL
USER_CHARGES

@<TRIPOS>ATOM
      1 C1         -0.0083    1.4001    0.1826 C.ar      1 <0>        -0.1259
      2 C2          1.1656    2.1063    0.0346 C.ar      1 <0>        -0.0336
      3 C3          2.3787    1.4331   -0.0068 C.ar      1 <0>         0.0280
      4 C4          2.4100    0.0309    0.1021 C.ar      1 <0>         0.1229
      5 C5          1.2118   -0.6753    0.2524 C.ar      1 <0>        -0.1910
      6 C6          0.0129    0.0106    0.2913 C.ar      1 <0>         0.2713
      7 N1         -1.1866   -0.6936    0.4416 N.pl3     1 <0>        -0.8482
      8 N2          3.7085   -0.3473    0.0301 N.pl3     1 <0>        -0.4754
      9 C7          4.4685    0.7103   -0.1137 C.cat     1 <0>         0.4095
     10 N3          3.6936    1.8377   -0.1423 N.pl3     1 <0>        -0.3660
     11 C8          4.1685    3.2158   -0.2887 C.3       1 <0>         0.0885
     12 C9          5.3432    3.3615   -1.2704 C.3       1 <0>        -0.1523
     13 C10         5.9438    4.3721   -0.2791 C.3       1 <0>        -0.1320
     14 C11         5.1422    3.6527    0.8185 C.3       1 <0>        -0.1550
     15 C12         5.9434    0.6888   -0.2279 C.2       1 <0>         0.0661
     16 C13         6.7154    0.0166   -1.2805 C.2       1 <0>         0.3502
     17 N4          7.9837    0.2173   -1.0502 N.2       1 <0>        -0.3075
     18 O1          8.0954    1.0030    0.1231 O.3       1 <0>         0.0850
     19 N5          6.7843    1.2702    0.5884 N.2       1 <0>        -0.1907
     20 N6          6.1861   -0.7091   -2.3396 N.pl3     1 <0>        -0.8084
     21 H1         -0.9505    1.9269    0.2191 H         1 <0>         0.1594
     22 H2          1.1418    3.1828   -0.0494 H         1 <0>         0.1563
     23 H3          1.2237   -1.7519    0.3369 H         1 <0>         0.1535
     24 H4         -2.0298   -0.2149    0.4698 H         1 <0>         0.4151
     25 H5         -1.1751   -1.6606    0.5175 H         1 <0>         0.4127
     26 H6          3.3602    3.9257   -0.4645 H         1 <0>         0.1602
     27 H7          5.9355    2.4531   -1.3806 H         1 <0>         0.0802
     28 H8          5.0611    3.8026   -2.2265 H         1 <0>         0.1037
     29 H9          7.0237    4.2803   -0.1624 H         1 <0>         0.0951
     30 H10         5.6217    5.3988   -0.4532 H         1 <0>         0.1056
     31 H11         4.6978    4.3289    1.5489 H         1 <0>         0.1014
     32 H12         5.6795    2.8240    1.2795 H         1 <0>         0.1078
     33 H13         5.2258   -0.7444   -2.4714 H         1 <0>         0.4182
     34 H14         6.7768   -1.1808   -2.9475 H         1 <0>         0.4339
     35 H15         4.0275   -1.2621    0.0780 H         1 <0>         0.4616
@<TRIPOS>BOND
     1    1    6 ar
     2    1    2 ar
     3    1   21 1
     4    2    3 ar
     5    2   22 1
     6    3   10 1
     7    3    4 ar
     8    4    5 ar
     9    4    8 1
    10    5    6 ar
    11    5   23 1
    12    6    7 1
    13    7   24 1
    14    7   25 1
    15    8    9 2
    16    8   35 1
    17    9   10 1
    18    9   15 1
    19   10   11 1
    20   11   14 1
    21   11   12 1
    22   11   26 1
    23   12   13 1
    24   12   27 1
    25   12   28 1
    26   13   14 1
    27   13   29 1
    28   13   30 1
    29   14   31 1
    30   14   32 1
    31   15   19 2
    32   15   16 1
    33   16   17 2
    34   16   20 1
    35   17   18 1
    36   18   19 1
    37   20   33 1
    38   20   34 1
@<TRIPOS>MOLECULE
CHEMBL473080
   39    41     0     0     0
SMALL
USER_CHARGES

@<TRIPOS>ATOM
      1 C1         -0.0168    1.3902    0.0097 C.ar      1 <0>        -0.1205
      2 C2          1.1703    2.0936    0.0021 C.ar      1 <0>        -0.0136
      3 C3          2.3776    1.4183   -0.0130 C.ar      1 <0>        -0.6847
      4 C4          2.4027    0.0351   -0.0212 C.ar      1 <0>        -0.0260
      5 C5          1.2221   -0.6792   -0.0142 C.ar      1 <0>        -0.1199
      6 C6          0.0021   -0.0041    0.0020 C.ar      1 <0>         0.0264
      7 C7         -1.2691   -0.7652    0.0106 C.ar      1 <0>         0.0133
      8 C8         -2.2750   -0.4777    0.9334 C.ar      1 <0>        -0.1803
      9 C9         -3.4465   -1.2125    0.9070 C.ar      1 <0>         0.1405
     10 N1         -3.6388   -2.1782    0.0326 N.ar      1 <0>        -0.4883
     11 C10        -2.7222   -2.5007   -0.8706 C.ar      1 <0>         0.2892
     12 C11        -1.5040   -1.7979   -0.9155 C.ar      1 <0>        -0.1342
     13 C12        -0.7325   -2.3838   -2.0097 C.2       1 <0>        -0.2045
     14 C13        -1.4900   -3.3563   -2.5439 C.2       1 <0>         0.0782
     15 N2         -2.6781   -3.4440   -1.8695 N.pl3     1 <0>        -0.5792
     16 H1         -3.3884   -4.0724   -2.0731 H         1 <0>         0.4252
     17 S1          3.8893    2.3234   -0.0226 S.o2      1 <0>         2.6953
     18 O1          4.8721    1.4665   -0.5875 O.2       1 <0>        -0.9452
     19 O2          3.5928    3.6034   -0.5638 O.2       1 <0>        -0.9361
     20 N3          4.3245    2.5664    1.5566 N.pl3     1 <0>        -1.1171
     21 C14         4.6696    1.4234    2.4055 C.3       1 <0>         0.0870
     22 C15         5.3805    1.9205    3.6659 C.3       1 <0>        -0.0159
     23 N4          5.7266    0.7744    4.5171 N.4       1 <0>        -0.6345
     24 H2         -0.9587    1.9185    0.0260 H         1 <0>         0.1407
     25 H3          1.1569    3.1735    0.0077 H         1 <0>         0.1461
     26 H4          3.3482   -0.4866   -0.0333 H         1 <0>         0.1419
     27 H5          1.2429   -1.7590   -0.0212 H         1 <0>         0.1390
     28 H6         -2.1403    0.3095    1.6605 H         1 <0>         0.1407
     29 H7         -4.2238   -0.9886    1.6226 H         1 <0>         0.1675
     30 H8          0.2571   -2.0910   -2.3279 H         1 <0>         0.1513
     31 H9         -1.2010   -3.9817   -3.3756 H         1 <0>         0.1841
     32 H10         4.3508    3.4656    1.9196 H         1 <0>         0.4273
     33 H11         3.7604    0.8921    2.6868 H         1 <0>         0.0902
     34 H12         5.3292    0.7502    1.8579 H         1 <0>         0.1045
     35 H13         6.2897    2.4518    3.3846 H         1 <0>         0.1453
     36 H14         4.7209    2.5937    4.2135 H         1 <0>         0.1435
     37 H15         4.8849    0.2825    4.7775 H         1 <0>         0.4382
     38 H16         6.3371    0.1512    4.0102 H         1 <0>         0.4397
     39 H17         6.1953    1.1022    5.3483 H         1 <0>         0.4449
@<TRIPOS>BOND
     1    1    6 ar
     2    1    2 ar
     3    1   24 1
     4    2    3 ar
     5    2   25 1
     6    3    4 ar
     7    3   17 1
     8    4    5 ar
     9    4   26 1
    10    5    6 ar
    11    5   27 1
    12    6    7 1
    13    7   12 ar
    14    7    8 ar
    15    8    9 ar
    16    8   28 1
    17    9   10 ar
    18    9   29 1
    19   10   11 ar
    20   11   15 1
    21   11   12 ar
    22   12   13 1
    23   13   14 2
    24   13   30 1
    25   14   15 1
    26   14   31 1
    27   15   16 1
    28   17   18 2
    29   17   19 2
    30   17   20 1
    31   20   21 1
    32   20   32 1
    33   21   22 1
    34   21   33 1
    35   21   34 1
    36   22   23 1
    37   22   35 1
    38   22   36 1
    39   23   37 1
    40   23   38 1
    41   23   39 1
@<TRIPOS>MOLECULE
CHEMBL590109
   51    56     0     0     0
SMALL
USER_CHARGES

@<TRIPOS>ATOM
      1 C1         -0.0164    1.3550    0.0095 C.ar      1 <0>        -0.1194
      2 C2          1.1574    2.0971    0.0023 C.ar      1 <0>        -0.0891
      3 C3          2.3749    1.4455   -0.0129 C.ar      1 <0>        -0.0787
      4 C4          2.4083    0.0676   -0.0206 C.ar      1 <0>        -0.1093
      5 C5          1.2295   -0.7113   -0.0135 C.ar      1 <0>        -0.0925
      6 C6          0.0021   -0.0041    0.0020 C.ar      1 <0>        -0.0738
      7 C7          1.4485   -2.1470   -0.0234 C.2       1 <0>        -0.1182
      8 C8          2.7191   -2.6185   -0.0380 C.2       1 <0>        -0.0938
      9 S1          3.7106   -1.1371   -0.0395 S.3       1 <0>         0.0292
     10 C9          3.1737   -4.0242   -0.0504 C.ar      1 <0>        -0.0370
     11 C10         2.6581   -4.9311    0.8653 C.ar      1 <0>        -0.0288
     12 C11         3.0842   -6.2618    0.8585 C.ar      1 <0>        -0.0628
     13 C12         4.0273   -6.6917   -0.0635 C.ar      1 <0>         0.0088
     14 C13         4.5552   -5.7888   -0.9926 C.ar      1 <0>        -0.1764
     15 C14         4.1256   -4.4495   -0.9933 C.ar      1 <0>         0.1546
     16 N1          4.8021   -3.8175   -2.0018 N.pl3     1 <0>        -0.5015
     17 H1          4.7127   -2.8811   -2.2386 H         1 <0>         0.4426
     18 N2          5.6428   -4.7377   -2.6360 N.2       1 <0>        -0.2389
     19 C15         5.5347   -5.9056   -2.0694 C.2       1 <0>         0.0835
     20 C16         2.5252   -7.2202    1.8433 C.2       1 <0>        -0.1020
     21 C17         2.4286   -7.0381    3.1855 C.2       1 <0>         0.0944
     22 N3          1.8617   -8.1356    3.7607 N.pl3     1 <0>        -0.4728
     23 C18         1.5690   -9.0763    2.7969 C.ar      1 <0>        -0.0809
     24 C19         1.9647   -8.5439    1.5538 C.ar      1 <0>         0.2073
     25 N4          1.7811   -9.2643    0.4495 N.ar      1 <0>        -0.5334
     26 C20         1.2301  -10.4643    0.5220 C.ar      1 <0>         0.5639
     27 N5          0.8430  -10.9926    1.6764 N.ar      1 <0>        -0.5430
     28 C21         1.0001  -10.3437    2.8184 C.ar      1 <0>         0.2059
     29 N6          1.0507  -11.1927   -0.6439 N.pl3     1 <0>        -0.8177
     30 C22         1.6019   -8.2929    5.1939 C.3       1 <0>         0.0913
     31 C23         2.7659   -9.0436    5.8439 C.3       1 <0>        -0.0341
     32 N7          2.5053   -9.2013    7.2810 N.4       1 <0>        -0.6328
     33 H2         -0.9657    1.8696    0.0259 H         1 <0>         0.1309
     34 H3          1.1184    3.1764    0.0081 H         1 <0>         0.1379
     35 H4          3.2946    2.0117   -0.0190 H         1 <0>         0.1336
     36 H5         -0.9293   -0.5508    0.0084 H         1 <0>         0.1269
     37 H6          0.6111   -2.8290   -0.0187 H         1 <0>         0.1395
     38 H7          1.9237   -4.6061    1.5874 H         1 <0>         0.1339
     39 H8          4.3536   -7.7212   -0.0639 H         1 <0>         0.1329
     40 H9          6.0659   -6.8023   -2.3525 H         1 <0>         0.2025
     41 H10         2.7529   -6.1558    3.7173 H         1 <0>         0.1874
     42 H11         0.6792  -10.7860    3.7500 H         1 <0>         0.1617
     43 H12         1.3280  -10.8207   -1.4957 H         1 <0>         0.4190
     44 H13         0.6480  -12.0744   -0.6077 H         1 <0>         0.4179
     45 H14         1.5007   -7.3103    5.6548 H         1 <0>         0.1171
     46 H15         0.6805   -8.8576    5.3363 H         1 <0>         0.1102
     47 H16         2.8670  -10.0262    5.3830 H         1 <0>         0.1399
     48 H17         3.6872   -8.4789    5.7015 H         1 <0>         0.1430
     49 H18         2.4117   -8.2917    7.7076 H         1 <0>         0.4382
     50 H19         1.6524   -9.7240    7.4128 H         1 <0>         0.4380
     51 H20         3.2729   -9.6964    7.7096 H         1 <0>         0.4450
@<TRIPOS>BOND
     1    1    6 ar
     2    1    2 ar
     3    1   33 1
     4    2    3 ar
     5    2   34 1
     6    3    4 ar
     7    3   35 1
     8    4    9 1
     9    4    5 ar
    10    5    6 ar
    11    5    7 1
    12    6   36 1
    13    7    8 2
    14    7   37 1
    15    8    9 1
    16    8   10 1
    17   10   15 ar
    18   10   11 ar
    19   11   12 ar
    20   11   38 1
    21   12   13 ar
    22   12   20 1
    23   13   14 ar
    24   13   39 1
    25   14   19 1
    26   14   15 ar
    27   15   16 1
    28   16   17 1
    29   16   18 1
    30   18   19 2
    31   19   40 1
    32   20   24 1
    33   20   21 2
    34   21   22 1
    35   21   41 1
    36   22   23 1
    37   22   30 1
    38   23   28 ar
    39   23   24 ar
    40   24   25 ar
    41   25   26 ar
    42   26   27 ar
    43   26   29 1
    44   27   28 ar
    45   28   42 1
    46   29   43 1
    47   29   44 1
    48   30   31 1
    49   30   45 1
    50   30   46 1
    51   31   32 1
    52   31   47 1
    53   31   48 1
    54   32   49 1
    55   32   50 1
    56   32   51 1
@<TRIPOS>MOLECULE
CHEMBL1084892
   41    43     0     0     0
SMALL
USER_CHARGES

@<TRIPOS>ATOM
      1 C1         -0.0262    1.4491    0.0097 C.3       1 <0>        -0.0566
      2 N1          0.0037   -0.0196    0.0040 N.4       1 <0>        -0.4916
      3 C2          0.6936   -0.4907   -1.2043 C.3       1 <0>         0.0656
      4 C3          0.6172   -1.9942   -1.2725 C.ar      1 <0>        -0.1581
      5 C4          0.7611   -2.7465   -0.1217 C.ar      1 <0>        -0.1100
      6 C5          0.6910   -4.1257   -0.1843 C.ar      1 <0>        -0.1018
      7 C6          0.4765   -4.7525   -1.3975 C.ar      1 <0>        -0.0804
      8 C7          0.3316   -4.0002   -2.5481 C.ar      1 <0>        -0.1033
      9 C8          0.3974   -2.6209   -2.4849 C.ar      1 <0>        -0.0833
     10 C9          2.1378   -0.0628   -1.1572 C.2       1 <0>         0.5152
     11 O1          2.6469    0.2383   -0.0984 O.2       1 <0>        -0.4992
     12 N2          2.8637   -0.0146   -2.2918 N.am      1 <0>        -0.6403
     13 C10         4.1721    0.4717   -2.2633 C.ar      1 <0>         0.1696
     14 C11         4.9688    0.2341   -1.1559 C.ar      1 <0>        -0.1118
     15 C12         6.2735    0.7226   -1.1356 C.ar      1 <0>         0.0355
     16 C13         7.1648    0.5039    0.0057 C.2       1 <0>        -0.2169
     17 C14         8.4129    0.9970   -0.0287 C.2       1 <0>         0.1375
     18 N3          8.8916    1.7023   -1.0961 N.am      1 <0>        -0.6304
     19 H1          9.8023    2.0350   -1.0667 H         1 <0>         0.4227
     20 C15         8.1433    1.9516   -2.1886 C.2       1 <0>         0.5476
     21 O2          8.6062    2.5850   -3.1205 O.2       1 <0>        -0.5108
     22 C16         6.7663    1.4529   -2.2433 C.ar      1 <0>        -0.1496
     23 C17         5.9433    1.6790   -3.3477 C.ar      1 <0>        -0.0122
     24 C18         4.6681    1.1889   -3.3544 C.ar      1 <0>        -0.0780
     25 Cl1         3.6500    1.4661   -4.7329 Cl        1 <0>        -0.0490
     26 H2          0.9938    1.8332    0.0006 H         1 <0>         0.1280
     27 H3         -0.5564    1.8051   -0.8736 H         1 <0>         0.1277
     28 H4         -0.5381    1.7986    0.9063 H         1 <0>         0.1375
     29 H5          0.4945   -0.3492    0.8217 H         1 <0>         0.4357
     30 H6          0.2163   -0.0623   -2.0856 H         1 <0>         0.1710
     31 H7          0.9288   -2.2568    0.8262 H         1 <0>         0.1249
     32 H8          0.8042   -4.7134    0.7147 H         1 <0>         0.1402
     33 H9          0.4224   -5.8300   -1.4464 H         1 <0>         0.1401
     34 H10         0.1643   -4.4900   -3.4960 H         1 <0>         0.1420
     35 H11         0.2805   -2.0329   -3.3833 H         1 <0>         0.1372
     36 H12         2.4771   -0.3179   -3.1281 H         1 <0>         0.4228
     37 H13         4.5825   -0.3241   -0.3159 H         1 <0>         0.1589
     38 H14         6.8209   -0.0489    0.8675 H         1 <0>         0.1537
     39 H15         9.0619    0.8304    0.8183 H         1 <0>         0.1692
     40 H16         6.3145    2.2356   -4.1955 H         1 <0>         0.1589
     41 H17        -0.9405   -0.3753    0.0124 H         1 <0>         0.4415
@<TRIPOS>BOND
     1    1    2 1
     2    1   26 1
     3    1   27 1
     4    1   28 1
     5    2    3 1
     6    2   29 1
     7    2   41 1
     8    3    4 1
     9    3   10 1
    10    3   30 1
    11    4    9 ar
    12    4    5 ar
    13    5    6 ar
    14    5   31 1
    15    6    7 ar
    16    6   32 1
    17    7    8 ar
    18    7   33 1
    19    8    9 ar
    20    8   34 1
    21    9   35 1
    22   10   11 2
    23   10   12 am
    24   12   13 1
    25   12   36 1
    26   13   24 ar
    27   13   14 ar
    28   14   15 ar
    29   14   37 1
    30   15   22 ar
    31   15   16 1
    32   16   17 2
    33   16   38 1
    34   17   18 1
    35   17   39 1
    36   18   19 1
    37   18   20 am
    38   20   21 2
    39   20   22 1
    40   22   23 ar
    41   23   24 ar
    42   23   40 1
    43   24   25 1
@<TRIPOS>MOLECULE
CHEMBL1084892__1
   40    42     0     0     0
SMALL
USER_CHARGES

@<TRIPOS>ATOM
      1 C1          0.9700   -0.8560   -0.8001 C.3       1 <0>         0.0269
      2 N1          0.0890   -0.0157    0.0219 N.3       1 <0>        -0.6697
      3 C2         -1.3144   -0.4245   -0.1235 C.3       1 <0>         0.1164
      4 C3         -1.8769    0.1542   -1.3962 C.ar      1 <0>        -0.0909
      5 C4         -1.4739    1.4055   -1.8237 C.ar      1 <0>        -0.0766
      6 C5         -1.9899    1.9364   -2.9911 C.ar      1 <0>        -0.1242
      7 C6         -2.9086    1.2158   -3.7312 C.ar      1 <0>        -0.1113
      8 C7         -3.3110   -0.0358   -3.3041 C.ar      1 <0>        -0.1212
      9 C8         -2.7917   -0.5685   -2.1390 C.ar      1 <0>        -0.1135
     10 C9         -2.1094    0.0811    1.0527 C.2       1 <0>         0.5217
     11 O1         -1.6472    0.9409    1.7724 O.2       1 <0>        -0.4925
     12 N2         -3.3340   -0.4222    1.3047 N.am      1 <0>        -0.6682
     13 C10        -4.1193    0.1277    2.3198 C.ar      1 <0>         0.1982
     14 C11        -4.0526    1.4862    2.5797 C.ar      1 <0>        -0.1178
     15 C12        -4.8399    2.0270    3.5940 C.ar      1 <0>         0.0336
     16 C13        -4.8143    3.4554    3.9162 C.2       1 <0>        -0.2033
     17 C14        -5.5945    3.9224    4.9038 C.2       1 <0>         0.1210
     18 N3         -6.4207    3.1115    5.6290 N.am      1 <0>        -0.6328
     19 H1         -6.9628    3.5036    6.3313 H         1 <0>         0.4178
     20 C15        -6.5093    1.7861    5.4025 C.2       1 <0>         0.5515
     21 O2         -7.2579    1.0960    6.0712 O.2       1 <0>        -0.5229
     22 C16        -5.6949    1.1838    4.3433 C.ar      1 <0>        -0.1640
     23 C17        -5.7440   -0.1823    4.0619 C.ar      1 <0>        -0.0149
     24 C18        -4.9697   -0.6963    3.0606 C.ar      1 <0>        -0.0836
     25 Cl1        -5.0389   -2.3949    2.7089 Cl        1 <0>        -0.0559
     26 H2          1.9905   -0.4771   -0.7431 H         1 <0>         0.0775
     27 H3          0.9421   -1.8813   -0.4311 H         1 <0>         0.0262
     28 H4          0.6313   -0.8333   -1.8358 H         1 <0>         0.0694
     29 H5          0.3724   -0.0335    0.9901 H         1 <0>         0.3566
     30 H6         -1.3739   -1.5122   -0.1617 H         1 <0>         0.0775
     31 H7         -0.7561    1.9684   -1.2456 H         1 <0>         0.1360
     32 H8         -1.6755    2.9143   -3.3248 H         1 <0>         0.1244
     33 H9         -3.3123    1.6309   -4.6429 H         1 <0>         0.1230
     34 H10        -4.0290   -0.5986   -3.8821 H         1 <0>         0.1244
     35 H11        -3.1033   -1.5479   -1.8072 H         1 <0>         0.1201
     36 H12        -3.6697   -1.1664    0.7810 H         1 <0>         0.4157
     37 H13        -3.3965    2.1203    2.0019 H         1 <0>         0.1546
     38 H14        -4.1733    4.1270    3.3645 H         1 <0>         0.1527
     39 H15        -5.5677    4.9773    5.1336 H         1 <0>         0.1650
     40 H16        -6.3947   -0.8299    4.6307 H         1 <0>         0.1531
@<TRIPOS>BOND
     1    1    2 1
     2    1   26 1
     3    1   27 1
     4    1   28 1
     5    2    3 1
     6    2   29 1
     7    3    4 1
     8    3   10 1
     9    3   30 1
    10    4    9 ar
    11    4    5 ar
    12    5    6 ar
    13    5   31 1
    14    6    7 ar
    15    6   32 1
    16    7    8 ar
    17    7   33 1
    18    8    9 ar
    19    8   34 1
    20    9   35 1
    21   10   11 2
    22   10   12 am
    23   12   13 1
    24   12   36 1
    25   13   24 ar
    26   13   14 ar
    27   14   15 ar
    28   14   37 1
    29   15   22 ar
    30   15   16 1
    31   16   17 2
    32   16   38 1
    33   17   18 1
    34   17   39 1
    35   18   19 1
    36   18   20 am
    37   20   21 2
    38   20   22 1
    39   22   23 ar
    40   23   24 ar
    41   23   40 1
    42   24   25 1
@<TRIPOS>MOLECULE
CHEMBL1084892__2
   41    43     0     0     0
SMALL
USER_CHARGES

@<TRIPOS>ATOM
      1 C1         -0.0434    1.4618    0.0065 C.3       1 <0>        -0.0481
      2 N1         -0.0135   -0.0069   -0.0000 N.4       1 <0>        -0.4938
      3 C2          0.6762   -0.4772   -1.2088 C.3       1 <0>         0.0657
      4 C3          2.1204   -0.0493   -1.1617 C.ar      1 <0>        -0.1528
      5 C4          2.8210   -0.1104    0.0285 C.ar      1 <0>        -0.1108
      6 C5          4.1457    0.2822    0.0717 C.ar      1 <0>        -0.1011
      7 C6          4.7700    0.7354   -1.0754 C.ar      1 <0>        -0.0807
      8 C7          4.0698    0.7956   -2.2657 C.ar      1 <0>        -0.1027
      9 C8          2.7463    0.3990   -2.3098 C.ar      1 <0>        -0.0819
     10 C9          0.5998   -1.9807   -1.2778 C.2       1 <0>         0.5115
     11 O1          0.3670   -2.6227   -0.2756 O.2       1 <0>        -0.4988
     12 N2          0.7902   -2.6118   -2.4534 N.am      1 <0>        -0.6402
     13 C10         0.8139   -4.0070   -2.5008 C.ar      1 <0>         0.1710
     14 C11        -0.0046   -4.7366   -1.6551 C.ar      1 <0>        -0.1129
     15 C12         0.0248   -6.1285   -1.7091 C.ar      1 <0>         0.0352
     16 C13        -0.8169   -6.9553   -0.8414 C.2       1 <0>        -0.2169
     17 C14        -0.7481   -8.2926   -0.9364 C.2       1 <0>         0.1373
     18 N3          0.0837   -8.9215   -1.8187 N.am      1 <0>        -0.6305
     19 H1          0.0919   -9.8911   -1.8444 H         1 <0>         0.4226
     20 C15         0.8929   -8.2421   -2.6550 C.2       1 <0>         0.5477
     21 O2          1.6210   -8.8393   -3.4277 O.2       1 <0>        -0.5108
     22 C16         0.8878   -6.7768   -2.6246 C.ar      1 <0>        -0.1497
     23 C17         1.7030   -6.0188   -3.4665 C.ar      1 <0>        -0.0125
     24 C18         1.6587   -4.6548   -3.4050 C.ar      1 <0>        -0.0773
     25 Cl1         2.6690   -3.7154   -4.4589 Cl        1 <0>        -0.0482
     26 H2          0.9766    1.8460   -0.0025 H         1 <0>         0.1278
     27 H3         -0.5738    1.8184   -0.8765 H         1 <0>         0.1287
     28 H4         -0.5552    1.8108    0.9034 H         1 <0>         0.1358
     29 H5          0.4775   -0.3369    0.8173 H         1 <0>         0.4351
     30 H6          0.1987   -0.0483   -2.0897 H         1 <0>         0.1707
     31 H7          2.3332   -0.4645    0.9246 H         1 <0>         0.1239
     32 H8          4.6928    0.2351    1.0016 H         1 <0>         0.1398
     33 H9          5.8048    1.0427   -1.0415 H         1 <0>         0.1398
     34 H10         4.5574    1.1501   -3.1618 H         1 <0>         0.1413
     35 H11         2.2002    0.4426   -3.2406 H         1 <0>         0.1365
     36 H12         0.9107   -2.0968   -3.2664 H         1 <0>         0.4225
     37 H13        -0.6590   -4.2316   -0.9601 H         1 <0>         0.1582
     38 H14        -1.4866   -6.4932   -0.1312 H         1 <0>         0.1536
     39 H15        -1.3728   -8.8929   -0.2916 H         1 <0>         0.1691
     40 H16         2.3633   -6.5087   -4.1669 H         1 <0>         0.1586
     41 H17        -0.9577   -0.3625    0.0083 H         1 <0>         0.4374
@<TRIPOS>BOND
     1    1    2 1
     2    1   26 1
     3    1   27 1
     4    1   28 1
     5    2    3 1
     6    2   29 1
     7    2   41 1
     8    3    4 1
     9    3   10 1
    10    3   30 1
    11    4    9 ar
    12    4    5 ar
    13    5    6 ar
    14    5   31 1
    15    6    7 ar
    16    6   32 1
    17    7    8 ar
    18    7   33 1
    19    8    9 ar
    20    8   34 1
    21    9   35 1
    22   10   11 2
    23   10   12 am
    24   12   13 1
    25   12   36 1
    26   13   24 ar
    27   13   14 ar
    28   14   15 ar
    29   14   37 1
    30   15   22 ar
    31   15   16 1
    32   16   17 2
    33   16   38 1
    34   17   18 1
    35   17   39 1
    36   18   19 1
    37   18   20 am
    38   20   21 2
    39   20   22 1
    40   22   23 ar
    41   23   24 ar
    42   23   40 1
    43   24   25 1
@<TRIPOS>MOLECULE
CHEMBL1084892__3
   40    42     0     0     0
SMALL
USER_CHARGES

@<TRIPOS>ATOM
      1 C1          0.9002   -0.8734   -0.8428 C.3       1 <0>         0.0252
      2 N1          0.0134   -0.0341   -0.0260 N.3       1 <0>        -0.6668
      3 C2         -1.3756   -0.5061   -0.1021 C.3       1 <0>         0.1204
      4 C3         -2.1498    0.0186    1.0795 C.ar      1 <0>        -0.1063
      5 C4         -2.0251    1.3433    1.4545 C.ar      1 <0>        -0.0852
      6 C5         -2.7353    1.8246    2.5384 C.ar      1 <0>        -0.1205
      7 C6         -3.5707    0.9814    3.2470 C.ar      1 <0>        -0.1079
      8 C7         -3.6962   -0.3430    2.8714 C.ar      1 <0>        -0.1202
      9 C8         -2.9892   -0.8233    1.7849 C.ar      1 <0>        -0.1066
     10 C9         -2.0062   -0.0084   -1.3771 C.2       1 <0>         0.5242
     11 O1         -1.5831    0.9948   -1.9114 O.2       1 <0>        -0.4812
     12 N2         -3.0404   -0.6780   -1.9235 N.am      1 <0>        -0.6740
     13 C10        -3.5489   -0.2861   -3.1632 C.ar      1 <0>         0.2012
     14 C11        -2.6934    0.2211   -4.1268 C.ar      1 <0>        -0.1205
     15 C12        -3.2088    0.6095   -5.3616 C.ar      1 <0>         0.0335
     16 C13        -2.3556    1.1524   -6.4209 C.2       1 <0>        -0.2032
     17 C14        -2.9058    1.5103   -7.5919 C.2       1 <0>         0.1205
     18 N3         -4.2436    1.3878   -7.8394 N.am      1 <0>        -0.6330
     19 H1         -4.5866    1.6621   -8.7042 H         1 <0>         0.4176
     20 C15        -5.1035    0.8989   -6.9242 C.2       1 <0>         0.5516
     21 O2         -6.2902    0.8054   -7.1826 O.2       1 <0>        -0.5233
     22 C16        -4.5954    0.4811   -5.6146 C.ar      1 <0>        -0.1654
     23 C17        -5.4369   -0.0331   -4.6268 C.ar      1 <0>        -0.0149
     24 C18        -4.9152   -0.4144   -3.4232 C.ar      1 <0>        -0.0843
     25 Cl1        -5.9640   -1.0601   -2.1998 Cl        1 <0>        -0.0551
     26 H2          1.9049   -0.4508   -0.8398 H         1 <0>         0.0786
     27 H3          0.9288   -1.8815   -0.4292 H         1 <0>         0.0273
     28 H4          0.5248   -0.9108   -1.8654 H         1 <0>         0.0642
     29 H5          0.3309    0.0029    0.9310 H         1 <0>         0.3572
     30 H6         -1.3900   -1.5960   -0.0909 H         1 <0>         0.0749
     31 H7         -1.3724    2.0020    0.9009 H         1 <0>         0.1353
     32 H8         -2.6373    2.8593    2.8318 H         1 <0>         0.1263
     33 H9         -4.1250    1.3573    4.0942 H         1 <0>         0.1247
     34 H10        -4.3486   -1.0019    3.4252 H         1 <0>         0.1259
     35 H11        -3.0901   -1.8571    1.4892 H         1 <0>         0.1230
     36 H12        -3.4314   -1.4322   -1.4553 H         1 <0>         0.4140
     37 H13        -1.6370    0.3151   -3.9230 H         1 <0>         0.1535
     38 H14        -1.2933    1.2642   -6.2613 H         1 <0>         0.1523
     39 H15        -2.2678    1.9099   -8.3663 H         1 <0>         0.1646
     40 H16        -6.4956   -0.1331   -4.8149 H         1 <0>         0.1526
@<TRIPOS>BOND
     1    1    2 1
     2    1   26 1
     3    1   27 1
     4    1   28 1
     5    2    3 1
     6    2   29 1
     7    3    4 1
     8    3   10 1
     9    3   30 1
    10    4    9 ar
    11    4    5 ar
    12    5    6 ar
    13    5   31 1
    14    6    7 ar
    15    6   32 1
    16    7    8 ar
    17    7   33 1
    18    8    9 ar
    19    8   34 1
    20    9   35 1
    21   10   11 2
    22   10   12 am
    23   12   13 1
    24   12   36 1
    25   13   24 ar
    26   13   14 ar
    27   14   15 ar
    28   14   37 1
    29   15   22 ar
    30   15   16 1
    31   16   17 2
    32   16   38 1
    33   17   18 1
    34   17   39 1
    35   18   19 1
    36   18   20 am
    37   20   21 2
    38   20   22 1
    39   22   23 ar
    40   23   24 ar
    41   23   40 1
    42   24   25 1
@<TRIPOS>MOLECULE
CHEMBL1084106
   45    48     0     0     0
SMALL
USER_CHARGES

@<TRIPOS>ATOM
      1 C1         -0.0353    1.3711   -0.0217 C.ar      1 <0>        -0.0807
      2 C2          1.1505    2.0817   -0.0237 C.ar      1 <0>        -0.1029
      3 C3          2.3587    1.4101   -0.0299 C.ar      1 <0>        -0.0829
      4 C4          2.3812    0.0280   -0.0338 C.ar      1 <0>        -0.1569
      5 C5          1.1955   -0.6826   -0.0309 C.ar      1 <0>        -0.1105
      6 C6         -0.0127   -0.0111   -0.0260 C.ar      1 <0>        -0.1016
      7 C7          3.6984   -0.7041   -0.0416 C.3       1 <0>         0.0718
      8 C8          4.0114   -1.1600   -1.4435 C.2       1 <0>         0.5178
      9 O1          3.7990   -2.3088   -1.7692 O.2       1 <0>        -0.4931
     10 N1          4.5274   -0.2912   -2.3353 N.am      1 <0>        -0.6429
     11 C9          4.9057   -0.7350   -3.6038 C.ar      1 <0>         0.1732
     12 C10         4.1783   -1.7355   -4.2262 C.ar      1 <0>        -0.1121
     13 C11         4.5622   -2.1724   -5.4923 C.ar      1 <0>         0.0356
     14 C12         3.8336   -3.2260   -6.2021 C.2       1 <0>        -0.2164
     15 C13         4.2477   -3.6077   -7.4206 C.2       1 <0>         0.1368
     16 N2          5.3328   -3.0479   -8.0331 N.am      1 <0>        -0.6307
     17 H1          5.5868   -3.3627   -8.9147 H         1 <0>         0.4224
     18 C14         6.0626   -2.0732   -7.4556 C.2       1 <0>         0.5477
     19 O2          7.0241   -1.5993   -8.0340 O.2       1 <0>        -0.5112
     20 C15         5.6870   -1.5900   -6.1239 C.ar      1 <0>        -0.1506
     21 C16         6.4037   -0.5831   -5.4756 C.ar      1 <0>        -0.0125
     22 C17         6.0113   -0.1621   -4.2366 C.ar      1 <0>        -0.0786
     23 Cl1         6.9011    1.0956   -3.4364 Cl        1 <0>        -0.0499
     24 N3          3.6150   -1.8718    0.8459 N.4       1 <0>        -0.4625
     25 C18         4.9321   -2.5166    0.9319 C.3       1 <0>        -0.0948
     26 C19         5.0560   -3.9443    0.3960 C.3       1 <0>        -0.1361
     27 C20         5.0828   -3.6883    1.9041 C.3       1 <0>        -0.1498
     28 H2         -0.9792    1.8957   -0.0122 H         1 <0>         0.1402
     29 H3          1.1329    3.1615   -0.0207 H         1 <0>         0.1421
     30 H4          3.2851    1.9653   -0.0322 H         1 <0>         0.1373
     31 H5          1.2131   -1.7625   -0.0342 H         1 <0>         0.1233
     32 H6         -0.9391   -0.5663   -0.0241 H         1 <0>         0.1400
     33 H7          4.4867   -0.0375    0.3082 H         1 <0>         0.1692
     34 H8          4.6359    0.6425   -2.0958 H         1 <0>         0.4218
     35 H9          3.3219   -2.1731   -3.7349 H         1 <0>         0.1586
     36 H10         2.9710   -3.6920   -5.7490 H         1 <0>         0.1533
     37 H11         3.7035   -4.3857   -7.9352 H         1 <0>         0.1688
     38 H12         7.2627   -0.1355   -5.9533 H         1 <0>         0.1583
     39 H13         3.3250   -1.5751    1.7657 H         1 <0>         0.4389
     40 H14         5.7887   -1.8548    0.8046 H         1 <0>         0.1752
     41 H15         4.1602   -4.4051   -0.0205 H         1 <0>         0.1252
     42 H16         5.9943   -4.2219   -0.0842 H         1 <0>         0.1313
     43 H17         6.0388   -3.7975    2.4162 H         1 <0>         0.1353
     44 H18         4.2048   -3.9807    2.4800 H         1 <0>         0.1220
     45 H19         2.9429   -2.5275    0.4766 H         1 <0>         0.4308
@<TRIPOS>BOND
     1    1    6 ar
     2    1    2 ar
     3    1   28 1
     4    2    3 ar
     5    2   29 1
     6    3    4 ar
     7    3   30 1
     8    4    5 ar
     9    4    7 1
    10    5    6 ar
    11    5   31 1
    12    6   32 1
    13    7    8 1
    14    7   24 1
    15    7   33 1
    16    8    9 2
    17    8   10 am
    18   10   11 1
    19   10   34 1
    20   11   22 ar
    21   11   12 ar
    22   12   13 ar
    23   12   35 1
    24   13   20 ar
    25   13   14 1
    26   14   15 2
    27   14   36 1
    28   15   16 1
    29   15   37 1
    30   16   17 1
    31   16   18 am
    32   18   19 2
    33   18   20 1
    34   20   21 ar
    35   21   22 ar
    36   21   38 1
    37   22   23 1
    38   24   25 1
    39   24   39 1
    40   24   45 1
    41   25   27 1
    42   25   26 1
    43   25   40 1
    44   26   27 1
    45   26   41 1
    46   26   42 1
    47   27   43 1
    48   27   44 1
@<TRIPOS>MOLECULE
CHEMBL1084106__1
   44    47     0     0     0
SMALL
USER_CHARGES

@<TRIPOS>ATOM
      1 C1         -0.0726    1.2081   -0.7402 C.ar      1 <0>        -0.1118
      2 C2          0.3079    0.8440    0.5380 C.ar      1 <0>        -0.1203
      3 C3          1.5254    0.2235    0.7463 C.ar      1 <0>        -0.0756
      4 C4          2.3623   -0.0335   -0.3236 C.ar      1 <0>        -0.0862
      5 C5          1.9814    0.3298   -1.6018 C.ar      1 <0>        -0.1245
      6 C6          0.7645    0.9516   -1.8099 C.ar      1 <0>        -0.1170
      7 C7          3.6900   -0.7091   -0.0963 C.3       1 <0>         0.1194
      8 C8          4.1725   -1.3159   -1.3886 C.2       1 <0>         0.4901
      9 O1          4.0281   -2.5028   -1.5924 O.2       1 <0>        -0.4971
     10 N1          4.7646   -0.5398   -2.3179 N.am      1 <0>        -0.6650
     11 C9          5.1153   -1.0788   -3.5571 C.ar      1 <0>         0.1962
     12 C10         4.4945   -2.2331   -4.0041 C.ar      1 <0>        -0.1375
     13 C11         4.8499   -2.7643   -5.2421 C.ar      1 <0>         0.0355
     14 C12         4.2295   -3.9815   -5.7697 C.2       1 <0>        -0.2038
     15 C13         4.6103   -4.4487   -6.9692 C.2       1 <0>         0.1212
     16 N2          5.5632   -3.8290   -7.7268 N.am      1 <0>        -0.6330
     17 H1          5.7989   -4.2111   -8.5867 H         1 <0>         0.4177
     18 C14         6.1868   -2.7053   -7.3217 C.2       1 <0>         0.5513
     19 O2          7.0320   -2.1822   -8.0260 O.2       1 <0>        -0.5234
     20 C15         5.8377   -2.1196   -6.0245 C.ar      1 <0>        -0.1691
     21 C16         6.4487   -0.9572   -5.5516 C.ar      1 <0>        -0.0117
     22 C17         6.0852   -0.4460   -4.3379 C.ar      1 <0>        -0.0904
     23 Cl1         6.8425    1.0039   -3.7565 Cl        1 <0>        -0.0554
     24 N3          3.5356   -1.7652    0.9130 N.3       1 <0>        -0.6253
     25 C18         2.4923   -2.7214    0.5191 C.3       1 <0>         0.0305
     26 C19         1.5032   -3.1712    1.5963 C.3       1 <0>        -0.1719
     27 C20         2.5781   -4.1369    1.0934 C.3       1 <0>        -0.1863
     28 H2         -1.0258    1.6889   -0.9035 H         1 <0>         0.1233
     29 H3         -0.3459    1.0448    1.3738 H         1 <0>         0.1254
     30 H4          1.8230   -0.0603    1.7449 H         1 <0>         0.1348
     31 H5          2.6354    0.1294   -2.4376 H         1 <0>         0.1190
     32 H6          0.4671    1.2358   -2.8086 H         1 <0>         0.1232
     33 H7          4.4159    0.0248    0.2538 H         1 <0>         0.1221
     34 H8          4.9470    0.3933   -2.1257 H         1 <0>         0.4179
     35 H9          3.7424   -2.7171   -3.3988 H         1 <0>         0.1711
     36 H10         3.4727   -4.4988   -5.1987 H         1 <0>         0.1518
     37 H11         4.1467   -5.3472   -7.3489 H         1 <0>         0.1645
     38 H12         7.2028   -0.4614   -6.1447 H         1 <0>         0.1526
     39 H13         4.4123   -2.2356    1.0812 H         1 <0>         0.3530
     40 H14         2.1147   -2.6128   -0.4976 H         1 <0>         0.1080
     41 H15         1.6267   -2.7577    2.5972 H         1 <0>         0.0974
     42 H16         0.4745   -3.3585    1.2884 H         1 <0>         0.0916
     43 H17         2.2565   -4.9595    0.4546 H         1 <0>         0.0936
     44 H18         3.4087   -4.3587    1.7634 H         1 <0>         0.0942
@<TRIPOS>BOND
     1    1    6 ar
     2    1    2 ar
     3    1   28 1
     4    2    3 ar
     5    2   29 1
     6    3    4 ar
     7    3   30 1
     8    4    5 ar
     9    4    7 1
    10    5    6 ar
    11    5   31 1
    12    6   32 1
    13    7    8 1
    14    7   24 1
    15    7   33 1
    16    8    9 2
    17    8   10 am
    18   10   11 1
    19   10   34 1
    20   11   22 ar
    21   11   12 ar
    22   12   13 ar
    23   12   35 1
    24   13   20 ar
    25   13   14 1
    26   14   15 2
    27   14   36 1
    28   15   16 1
    29   15   37 1
    30   16   17 1
    31   16   18 am
    32   18   19 2
    33   18   20 1
    34   20   21 ar
    35   21   22 ar
    36   21   38 1
    37   22   23 1
    38   24   25 1
    39   24   39 1
    40   25   27 1
    41   25   26 1
    42   25   40 1
    43   26   27 1
    44   26   41 1
    45   26   42 1
    46   27   43 1
    47   27   44 1
@<TRIPOS>MOLECULE
CHEMBL1084106__2
   45    48     0     0     0
SMALL
USER_CHARGES

@<TRIPOS>ATOM
      1 C1          0.0008    1.3838   -0.0218 C.ar      1 <0>        -0.0811
      2 C2          1.1903    2.0881   -0.0243 C.ar      1 <0>        -0.1033
      3 C3          2.3950    1.4102   -0.0305 C.ar      1 <0>        -0.0832
      4 C4          2.4102    0.0280   -0.0338 C.ar      1 <0>        -0.1509
      5 C5          1.2208   -0.6764   -0.0304 C.ar      1 <0>        -0.1060
      6 C6          0.0161    0.0015   -0.0256 C.ar      1 <0>        -0.1014
      7 C7          3.7236   -0.7111   -0.0415 C.3       1 <0>         0.0721
      8 C8          4.0468   -1.1757    1.3551 C.2       1 <0>         0.5122
      9 O1          3.8313   -2.3250    1.6770 O.2       1 <0>        -0.4995
     10 N1          4.5754   -0.3140    2.2465 N.am      1 <0>        -0.6398
     11 C9          4.7866   -0.7172    3.5664 C.ar      1 <0>         0.1715
     12 C10         5.1606   -2.0234    3.8337 C.ar      1 <0>        -0.1131
     13 C11         5.3699   -2.4176    5.1536 C.ar      1 <0>         0.0352
     14 C12         5.7669   -3.7840    5.5003 C.2       1 <0>        -0.2167
     15 C13         5.9553   -4.1086    6.7891 C.2       1 <0>         0.1371
     16 N2          5.7904   -3.2074    7.8023 N.am      1 <0>        -0.6306
     17 H1          5.9405   -3.4973    8.7157 H         1 <0>         0.4225
     18 C14         5.4269   -1.9294    7.5772 C.2       1 <0>         0.5477
     19 O2          5.2895   -1.1554    8.5078 O.2       1 <0>        -0.5109
     20 C15         5.1981   -1.4810    6.2008 C.ar      1 <0>        -0.1497
     21 C16         4.8207   -0.1702    5.9053 C.ar      1 <0>        -0.0124
     22 C17         4.6245    0.2020    4.6055 C.ar      1 <0>        -0.0772
     23 Cl1         4.1621    1.8352    4.2415 Cl        1 <0>        -0.0479
     24 N3          3.6259   -1.8737   -0.9341 N.4       1 <0>        -0.4645
     25 C18         3.4298   -1.4152   -2.3158 C.3       1 <0>        -0.0858
     26 C19         4.5261   -1.7435   -3.3314 C.3       1 <0>        -0.1513
     27 C20         3.1868   -2.4812   -3.3861 C.3       1 <0>        -0.1486
     28 H2         -0.9403    1.9134   -0.0124 H         1 <0>         0.1395
     29 H3          1.1784    3.1681   -0.0217 H         1 <0>         0.1410
     30 H4          3.3243    1.9605   -0.0331 H         1 <0>         0.1363
     31 H5          1.2327   -1.7563   -0.0333 H         1 <0>         0.1224
     32 H6         -0.9132   -0.5488   -0.0233 H         1 <0>         0.1393
     33 H7          4.5122   -0.0468   -0.3951 H         1 <0>         0.1705
     34 H8          4.8091    0.5862    1.9711 H         1 <0>         0.4227
     35 H9          5.2885   -2.7299    3.0269 H         1 <0>         0.1580
     36 H10         5.9064   -4.5239    4.7260 H         1 <0>         0.1535
     37 H11         6.2476   -5.1191    7.0339 H         1 <0>         0.1690
     38 H12         4.6884    0.5482    6.7007 H         1 <0>         0.1586
     39 H13         4.4760   -2.4143   -0.8765 H         1 <0>         0.4317
     40 H14         2.9098   -0.4636   -2.4261 H         1 <0>         0.1810
     41 H15         4.7275   -1.0077   -4.1100 H         1 <0>         0.1361
     42 H16         5.3928   -2.2997   -2.9743 H         1 <0>         0.1227
     43 H17         3.1724   -3.5227   -3.0650 H         1 <0>         0.1231
     44 H18         2.5072   -2.2308   -4.2007 H         1 <0>         0.1364
     45 H19         2.8435   -2.4467   -0.6556 H         1 <0>         0.4335
@<TRIPOS>BOND
     1    1    6 ar
     2    1    2 ar
     3    1   28 1
     4    2    3 ar
     5    2   29 1
     6    3    4 ar
     7    3   30 1
     8    4    5 ar
     9    4    7 1
    10    5    6 ar
    11    5   31 1
    12    6   32 1
    13    7    8 1
    14    7   24 1
    15    7   33 1
    16    8    9 2
    17    8   10 am
    18   10   11 1
    19   10   34 1
    20   11   22 ar
    21   11   12 ar
    22   12   13 ar
    23   12   35 1
    24   13   20 ar
    25   13   14 1
    26   14   15 2
    27   14   36 1
    28   15   16 1
    29   15   37 1
    30   16   17 1
    31   16   18 am
    32   18   19 2
    33   18   20 1
    34   20   21 ar
    35   21   22 ar
    36   21   38 1
    37   22   23 1
    38   24   25 1
    39   24   39 1
    40   24   45 1
    41   25   27 1
    42   25   26 1
    43   25   40 1
    44   26   27 1
    45   26   41 1
    46   26   42 1
    47   27   43 1
    48   27   44 1
@<TRIPOS>MOLECULE
CHEMBL1084106__3
   44    47     0     0     0
SMALL
USER_CHARGES

@<TRIPOS>ATOM
      1 C1         -0.0275    1.4060   -0.2167 C.ar      1 <0>        -0.1127
      2 C2          0.7344    1.3627    0.9359 C.ar      1 <0>        -0.1103
      3 C3          1.9474    0.6996    0.9382 C.ar      1 <0>        -0.1196
      4 C4          2.3982    0.0795   -0.2121 C.ar      1 <0>        -0.1204
      5 C5          1.6359    0.1220   -1.3644 C.ar      1 <0>        -0.1018
      6 C6          0.4236    0.7863   -1.3671 C.ar      1 <0>        -0.1116
      7 C7          3.7210   -0.6425   -0.2099 C.3       1 <0>         0.1170
      8 C8          4.1120   -0.9704    1.2081 C.2       1 <0>         0.5287
      9 O1          3.9281   -2.0867    1.6452 O.2       1 <0>        -0.4799
     10 N1          4.6659   -0.0231    1.9906 N.am      1 <0>        -0.6712
     11 C9          5.1350   -0.3553    3.2629 C.ar      1 <0>         0.2001
     12 C10         5.5148   -1.6586    3.5360 C.ar      1 <0>        -0.1300
     13 C11         5.9823   -1.9816    4.8081 C.ar      1 <0>         0.0352
     14 C12         6.3992   -3.3413    5.1580 C.2       1 <0>        -0.2024
     15 C13         6.8420   -3.5960    6.3994 C.2       1 <0>         0.1198
     16 N2          6.9209   -2.6288    7.3608 N.am      1 <0>        -0.6332
     17 H1          7.2490   -2.8697    8.2413 H         1 <0>         0.4174
     18 C14         6.5592   -1.3516    7.1288 C.2       1 <0>         0.5514
     19 O2          6.6438   -0.5175    8.0126 O.2       1 <0>        -0.5242
     20 C15         6.0627   -0.9770    5.8018 C.ar      1 <0>        -0.1686
     21 C16         5.6738    0.3294    5.5016 C.ar      1 <0>        -0.0125
     22 C17         5.2226    0.6312    4.2479 C.ar      1 <0>        -0.0899
     23 Cl1         4.7465    2.2588    3.8764 Cl        1 <0>        -0.0566
     24 N3          3.6020   -1.8849   -0.9847 N.3       1 <0>        -0.6318
     25 C18         2.4977   -2.7140   -0.4838 C.3       1 <0>         0.0394
     26 C19         1.6473   -3.4568   -1.5163 C.3       1 <0>        -0.2082
     27 C20         2.6288   -4.2310   -0.6342 C.3       1 <0>        -0.1602
     28 H2         -0.9772    1.9203   -0.2172 H         1 <0>         0.1254
     29 H3          0.3822    1.8472    1.8346 H         1 <0>         0.1253
     30 H4          2.5429    0.6664    1.8385 H         1 <0>         0.1229
     31 H5          1.9883   -0.3622   -2.2632 H         1 <0>         0.1215
     32 H6         -0.1718    0.8199   -2.2675 H         1 <0>         0.1264
     33 H7          4.4832   -0.0058   -0.6590 H         1 <0>         0.1217
     34 H8          4.7387    0.8894    1.6697 H         1 <0>         0.4163
     35 H9          5.4490   -2.4174    2.7703 H         1 <0>         0.1673
     36 H10         6.3505   -4.1320    4.4240 H         1 <0>         0.1527
     37 H11         7.1467   -4.6021    6.6471 H         1 <0>         0.1644
     38 H12         5.7332    1.0997    6.2563 H         1 <0>         0.1523
     39 H13         3.4894   -1.6884   -1.9680 H         1 <0>         0.3539
     40 H14         1.9942   -2.3382    0.4069 H         1 <0>         0.1105
     41 H15         0.5839   -3.5696   -1.3051 H         1 <0>         0.0928
     42 H16         1.9072   -3.3301   -2.5672 H         1 <0>         0.0935
     43 H17         3.5344   -4.6137   -1.1048 H         1 <0>         0.0966
     44 H18         2.2111   -4.8532    0.1574 H         1 <0>         0.0929
@<TRIPOS>BOND
     1    1    6 ar
     2    1    2 ar
     3    1   28 1
     4    2    3 ar
     5    2   29 1
     6    3    4 ar
     7    3   30 1
     8    4    5 ar
     9    4    7 1
    10    5    6 ar
    11    5   31 1
    12    6   32 1
    13    7    8 1
    14    7   24 1
    15    7   33 1
    16    8    9 2
    17    8   10 am
    18   10   11 1
    19   10   34 1
    20   11   22 ar
    21   11   12 ar
    22   12   13 ar
    23   12   35 1
    24   13   20 ar
    25   13   14 1
    26   14   15 2
    27   14   36 1
    28   15   16 1
    29   15   37 1
    30   16   17 1
    31   16   18 am
    32   18   19 2
    33   18   20 1
    34   20   21 ar
    35   21   22 ar
    36   21   38 1
    37   22   23 1
    38   24   25 1
    39   24   39 1
    40   25   27 1
    41   25   26 1
    42   25   40 1
    43   26   27 1
    44   26   41 1
    45   26   42 1
    46   27   43 1
    47   27   44 1
@<TRIPOS>MOLECULE
CHEMBL450487
   47    50     0     0     0
SMALL
USER_CHARGES

@<TRIPOS>ATOM
      1 C1         -0.0187    1.5258    0.0104 C.3       1 <0>        -0.1645
      2 C2          0.0021   -0.0041    0.0020 C.3       1 <0>         0.1000
      3 N1         -1.3723   -0.5112    0.0124 N.pl3     1 <0>        -0.4465
      4 C3         -2.1310   -0.7950    1.1244 C.ar      1 <0>         0.0786
      5 C4         -1.9270   -0.7242    2.5033 C.ar      1 <0>         0.0750
      6 C5         -2.9504   -1.1044    3.3519 C.ar      1 <0>         0.0312
      7 N2         -4.1104   -1.5312    2.8822 N.ar      1 <0>        -0.4532
      8 C6         -4.3598   -1.6190    1.5850 C.ar      1 <0>         0.2819
      9 C7         -3.3737   -1.2518    0.6484 C.ar      1 <0>         0.0483
     10 N3         -3.3195   -1.2270   -0.6954 N.2       1 <0>        -0.4341
     11 C8         -2.1472   -0.7867   -1.0834 C.2       1 <0>         0.3334
     12 C9         -1.7239   -0.6170   -2.4907 C.2       1 <0>         0.1334
     13 C10        -2.5425   -0.9016   -3.6760 C.2       1 <0>         0.3639
     14 N4         -1.8342   -0.6312   -4.7377 N.2       1 <0>        -0.3443
     15 O1         -0.5638   -0.1732   -4.3102 O.3       1 <0>         0.0472
     16 N5         -0.5576   -0.1821   -2.8936 N.2       1 <0>        -0.2510
     17 N6         -3.8470   -1.3775   -3.6683 N.pl3     1 <0>        -0.8003
     18 C11        -5.6789   -2.1051    1.1172 C.2       1 <0>        -0.2101
     19 C12        -6.4478   -3.0602    1.7195 C.2       1 <0>         0.1147
     20 N7         -7.5652   -3.2090    0.9808 N.pl3     1 <0>        -0.4680
     21 H1         -8.2940   -3.8208    1.1693 H         1 <0>         0.4462
     22 N8         -7.4933   -2.3287   -0.1055 N.2       1 <0>        -0.2880
     23 C13        -6.3726   -1.6620   -0.0273 C.2       1 <0>         0.0917
     24 O2         -0.7402   -0.2886    3.0044 O.3       1 <0>        -0.3114
     25 C14        -0.6130   -0.2463    4.4271 C.3       1 <0>         0.0590
     26 C15         0.7798    0.2657    4.7996 C.3       1 <0>        -0.1544
     27 C16         0.9159    0.3110    6.3229 C.3       1 <0>        -0.0047
     28 N9          2.2532    0.8025    6.6806 N.4       1 <0>        -0.6360
     29 H2          1.0039    1.9031    0.0027 H         1 <0>         0.0839
     30 H3         -0.5459    1.8868   -0.8726 H         1 <0>         0.0652
     31 H4         -0.5289    1.8773    0.9072 H         1 <0>         0.0622
     32 H5          0.5123   -0.3556   -0.8948 H         1 <0>         0.1080
     33 H6          0.5293   -0.3651    0.8851 H         1 <0>         0.1007
     34 H7         -2.7991   -1.0521    4.4199 H         1 <0>         0.1653
     35 H8         -4.2950   -1.5508   -2.8256 H         1 <0>         0.4301
     36 H9         -4.3102   -1.5365   -4.5055 H         1 <0>         0.4211
     37 H10        -6.2042   -3.5989    2.6233 H         1 <0>         0.1855
     38 H11        -6.0350   -0.9056   -0.7203 H         1 <0>         0.1877
     39 H12        -1.3684    0.4226    4.8396 H         1 <0>         0.0779
     40 H13        -0.7531   -1.2476    4.8343 H         1 <0>         0.0777
     41 H14         1.5351   -0.4032    4.3871 H         1 <0>         0.1001
     42 H15         0.9198    1.2670    4.3924 H         1 <0>         0.1005
     43 H16         0.1606    0.9799    6.7354 H         1 <0>         0.1395
     44 H17         0.7759   -0.6903    6.7301 H         1 <0>         0.1394
     45 H18         2.3828    1.7294    6.3036 H         1 <0>         0.4374
     46 H19         2.3430    0.8324    7.6852 H         1 <0>         0.4426
     47 H20         2.9524    0.1833    6.2987 H         1 <0>         0.4374
@<TRIPOS>BOND
     1    1    2 1
     2    1   29 1
     3    1   30 1
     4    1   31 1
     5    2    3 1
     6    2   32 1
     7    2   33 1
     8    3   11 1
     9    3    4 1
    10    4    9 ar
    11    4    5 ar
    12    5    6 ar
    13    5   24 1
    14    6    7 ar
    15    6   34 1
    16    7    8 ar
    17    8    9 ar
    18    8   18 1
    19    9   10 1
    20   10   11 2
    21   11   12 1
    22   12   16 2
    23   12   13 1
    24   13   14 2
    25   13   17 1
    26   14   15 1
    27   15   16 1
    28   17   35 1
    29   17   36 1
    30   18   23 1
    31   18   19 2
    32   19   20 1
    33   19   37 1
    34   20   21 1
    35   20   22 1
    36   22   23 2
    37   23   38 1
    38   24   25 1
    39   25   26 1
    40   25   39 1
    41   25   40 1
    42   26   27 1
    43   26   41 1
    44   26   42 1
    45   27   28 1
    46   27   43 1
    47   27   44 1
    48   28   45 1
    49   28   46 1
    50   28   47 1
@<TRIPOS>MOLECULE
CHEMBL571948
   38    40     0     0     0
SMALL
USER_CHARGES

@<TRIPOS>ATOM
      1 C1         -0.0161    1.6212    0.0752 C.3       1 <0>        -0.1821
      2 C2          0.0109    0.0919    0.0389 C.3       1 <0>         0.0807
      3 H1         -1.0102   -0.2896    0.0365 H         1 <0>         0.1520
      4 C3          0.7379   -0.4266    1.2529 C.ar      1 <0>        -0.1236
      5 C4          2.1213   -0.4306    1.2777 C.ar      1 <0>        -0.1266
      6 C5          2.7930   -0.9034    2.3860 C.ar      1 <0>        -0.0437
      7 C6          2.0738   -1.3786    3.4840 C.ar      1 <0>        -0.1019
      8 C7          0.6782   -1.3718    3.4524 C.ar      1 <0>        -0.0740
      9 C8          0.0189   -0.8913    2.3399 C.ar      1 <0>        -0.0911
     10 C9          2.7868   -1.8872    4.6746 C.2       1 <0>         0.5518
     11 O1          4.0022   -1.8923    4.6991 O.2       1 <0>        -0.4971
     12 N1          2.0895   -2.3453    5.7331 N.am      1 <0>        -0.6550
     13 C10         2.7592   -2.9031    6.8196 C.ar      1 <0>         0.2207
     14 C11         4.0084   -2.4330    7.2107 C.ar      1 <0>        -0.2015
     15 C12         4.6413   -3.0135    8.2953 C.ar      1 <0>         0.1589
     16 N2          4.0909   -4.0023    8.9691 N.ar      1 <0>        -0.5022
     17 C13         2.9010   -4.4945    8.6445 C.ar      1 <0>         0.3039
     18 C14         2.1923   -3.9534    7.5577 C.ar      1 <0>        -0.1748
     19 C15         0.9370   -4.7006    7.4734 C.2       1 <0>        -0.2031
     20 C16         0.9534   -5.6026    8.4675 C.2       1 <0>         0.0727
     21 N3          2.1242   -5.4980    9.1712 N.pl3     1 <0>        -0.5785
     22 H2          2.3647   -6.0447    9.9355 H         1 <0>         0.4252
     23 N4          0.7042   -0.3570   -1.1759 N.4       1 <0>        -0.6371
     24 H3          1.0050    2.0026    0.0777 H         1 <0>         0.0845
     25 H4         -0.5419    1.9962   -0.8028 H         1 <0>         0.0888
     26 H5         -0.5306    1.9542    0.9766 H         1 <0>         0.1092
     27 H6          2.6764   -0.0630    0.4274 H         1 <0>         0.1308
     28 H7          3.8728   -0.9063    2.4039 H         1 <0>         0.1520
     29 H8          0.1159   -1.7384    4.2984 H         1 <0>         0.1409
     30 H9         -1.0608   -0.8817    2.3158 H         1 <0>         0.1444
     31 H10         1.1213   -2.2865    5.7383 H         1 <0>         0.4128
     32 H11         4.4795   -1.6233    6.6732 H         1 <0>         0.1528
     33 H12         5.6114   -2.6468    8.5968 H         1 <0>         0.1689
     34 H13         0.1483   -4.5542    6.7503 H         1 <0>         0.1479
     35 H14         0.1653   -6.3111    8.6757 H         1 <0>         0.1824
     36 H15         1.6494   -0.0039   -1.1736 H         1 <0>         0.4320
     37 H16         0.7220   -1.3655   -1.1998 H         1 <0>         0.4390
     38 H17         0.2175   -0.0098   -1.9887 H         1 <0>         0.4399
@<TRIPOS>BOND
     1    1    2 1
     2    1   24 1
     3    1   25 1
     4    1   26 1
     5    2    3 1
     6    2    4 1
     7    2   23 1
     8    4    9 ar
     9    4    5 ar
    10    5    6 ar
    11    5   27 1
    12    6    7 ar
    13    6   28 1
    14    7    8 ar
    15    7   10 1
    16    8    9 ar
    17    8   29 1
    18    9   30 1
    19   10   11 2
    20   10   12 am
    21   12   13 1
    22   12   31 1
    23   13   18 ar
    24   13   14 ar
    25   14   15 ar
    26   14   32 1
    27   15   16 ar
    28   15   33 1
    29   16   17 ar
    30   17   21 1
    31   17   18 ar
    32   18   19 1
    33   19   20 2
    34   19   34 1
    35   20   21 1
    36   20   35 1
    37   21   22 1
    38   23   36 1
    39   23   37 1
    40   23   38 1
@<TRIPOS>MOLECULE
CHEMBL379218
   50    53     0     0     0
SMALL
USER_CHARGES

@<TRIPOS>ATOM
      1 C1         -0.0184    1.5028    0.0103 C.3       1 <0>        -0.0807
      2 C2          0.0021   -0.0041    0.0020 C.2       1 <0>         0.1088
      3 C3          0.0083   -0.8581   -1.1820 C.ar      1 <0>        -0.1763
      4 C4         -0.0019   -0.6082   -2.5573 C.ar      1 <0>        -0.0083
      5 C5          0.0079   -1.6738   -3.4431 C.ar      1 <0>        -0.1061
      6 C6          0.0279   -2.9891   -2.9631 C.ar      1 <0>        -0.0534
      7 C7          0.0380   -3.2410   -1.6234 C.ar      1 <0>        -0.1371
      8 C8          0.0285   -2.1860   -0.7124 C.ar      1 <0>         0.1440
      9 N1          0.0337   -2.1193    0.6566 N.pl3     1 <0>        -0.5045
     10 H1          0.0468   -2.8812    1.2569 H         1 <0>         0.4444
     11 N2          0.0230   -0.7772    1.0497 N.2       1 <0>        -0.2435
     12 C9         -0.0034   -1.4202   -4.9053 C.ar      1 <0>        -0.0271
     13 C10         0.0004   -2.4846   -5.8096 C.ar      1 <0>        -0.1014
     14 C11        -0.0110   -2.1940   -7.1677 C.ar      1 <0>         0.0698
     15 C12        -0.0257   -0.8671   -7.5756 C.ar      1 <0>         0.0161
     16 N3         -0.0289    0.1132   -6.6940 N.ar      1 <0>        -0.4368
     17 C13        -0.0238   -0.1167   -5.3969 C.ar      1 <0>         0.0812
     18 O1         -0.0074   -3.1961   -8.0859 O.3       1 <0>        -0.3231
     19 C14        -0.0198   -2.8144   -9.4629 C.3       1 <0>         0.0274
     20 C15        -0.0136   -4.0682  -10.3397 C.3       1 <0>         0.0437
     21 H2          0.8359   -4.6958  -10.0703 H         1 <0>         0.1553
     22 C16         0.0989   -3.6615  -11.8104 C.3       1 <0>        -0.0972
     23 C17         0.2286   -4.8962  -12.6646 C.ar      1 <0>        -0.1303
     24 C18         1.4792   -5.4136  -12.9461 C.ar      1 <0>        -0.1030
     25 C19         1.5982   -6.5462  -13.7296 C.ar      1 <0>        -0.1053
     26 C20         0.4666   -7.1617  -14.2312 C.ar      1 <0>        -0.1014
     27 C21        -0.7840   -6.6448  -13.9490 C.ar      1 <0>        -0.1075
     28 C22        -0.9032   -5.5147  -13.1619 C.ar      1 <0>        -0.1401
     29 N4         -1.2605   -4.8167  -10.1327 N.4       1 <0>        -0.6365
     30 H3          1.0042    1.8801    0.0026 H         1 <0>         0.0878
     31 H4         -0.5455    1.8639   -0.8728 H         1 <0>         0.0842
     32 H5         -0.5286    1.8543    0.9071 H         1 <0>         0.0843
     33 H6         -0.0177    0.4067   -2.9264 H         1 <0>         0.1366
     34 H7          0.0350   -3.8127   -3.6617 H         1 <0>         0.1316
     35 H8          0.0531   -4.2604   -1.2670 H         1 <0>         0.1332
     36 H9          0.0123   -3.5071   -5.4619 H         1 <0>         0.1476
     37 H10        -0.0343   -0.6345   -8.6302 H         1 <0>         0.1565
     38 H11        -0.0314    0.7142   -4.7071 H         1 <0>         0.1670
     39 H12        -0.9167   -2.2306   -9.6700 H         1 <0>         0.0927
     40 H13         0.8631   -2.2138   -9.6814 H         1 <0>         0.1143
     41 H14        -0.7936   -3.1088  -12.1038 H         1 <0>         0.1038
     42 H15         0.9777   -3.0313  -11.9469 H         1 <0>         0.1255
     43 H16         2.3632   -4.9328  -12.5542 H         1 <0>         0.1308
     44 H17         2.5752   -6.9501  -13.9502 H         1 <0>         0.1335
     45 H18         0.5596   -8.0462  -14.8440 H         1 <0>         0.1330
     46 H19        -1.6681   -7.1255  -14.3411 H         1 <0>         0.1326
     47 H20        -1.8805   -5.1130  -12.9382 H         1 <0>         0.1228
     48 H21        -1.2564   -5.6436  -10.7110 H         1 <0>         0.4365
     49 H22        -1.3347   -5.0850   -9.1628 H         1 <0>         0.4422
     50 H23        -2.0469   -4.2358  -10.3821 H         1 <0>         0.4324
@<TRIPOS>BOND
     1    1    2 1
     2    1   30 1
     3    1   31 1
     4    1   32 1
     5    2   11 2
     6    2    3 1
     7    3    8 ar
     8    3    4 ar
     9    4    5 ar
    10    4   33 1
    11    5    6 ar
    12    5   12 1
    13    6    7 ar
    14    6   34 1
    15    7    8 ar
    16    7   35 1
    17    8    9 1
    18    9   10 1
    19    9   11 1
    20   12   17 ar
    21   12   13 ar
    22   13   14 ar
    23   13   36 1
    24   14   15 ar
    25   14   18 1
    26   15   16 ar
    27   15   37 1
    28   16   17 ar
    29   17   38 1
    30   18   19 1
    31   19   20 1
    32   19   39 1
    33   19   40 1
    34   20   21 1
    35   20   22 1
    36   20   29 1
    37   22   23 1
    38   22   41 1
    39   22   42 1
    40   23   28 ar
    41   23   24 ar
    42   24   25 ar
    43   24   43 1
    44   25   26 ar
    45   25   44 1
    46   26   27 ar
    47   26   45 1
    48   27   28 ar
    49   27   46 1
    50   28   47 1
    51   29   48 1
    52   29   49 1
    53   29   50 1
@<TRIPOS>MOLECULE
CHEMBL218719
   47    50     0     0     0
SMALL
USER_CHARGES

@<TRIPOS>ATOM
      1 C1         -0.0180    1.5022    0.0184 C.3       1 <0>        -0.1193
      2 C2          0.0022   -0.0046   -0.0007 C.2       1 <0>         0.2414
      3 C3         -1.1578   -0.6837   -0.0012 C.2       1 <0>        -0.2779
      4 C4         -1.1577   -2.1901   -0.0200 C.3       1 <0>         0.0007
      5 C5          0.0474   -2.7082    0.7678 C.3       1 <0>        -0.1345
      6 C6          1.2835   -1.9604    0.3401 C.2       1 <0>         0.5215
      7 O1          2.3548   -2.5279    0.3179 O.2       1 <0>        -0.4989
      8 N1          1.2038   -0.6654   -0.0229 N.am      1 <0>        -0.6619
      9 C7         -1.0732   -2.6750   -1.4444 C.ar      1 <0>        -0.0510
     10 C8          0.0151   -2.3360   -2.2265 C.ar      1 <0>        -0.1196
     11 C9          0.0926   -2.7807   -3.5330 C.ar      1 <0>        -0.0619
     12 C10        -0.9179   -3.5649   -4.0574 C.ar      1 <0>        -0.1810
     13 C11        -2.0057   -3.9046   -3.2750 C.ar      1 <0>        -0.0625
     14 C12        -2.0812   -3.4634   -1.9671 C.ar      1 <0>        -0.1138
     15 C13        -0.8339   -4.0489   -5.4820 C.3       1 <0>         0.5074
     16 F1         -0.1767   -5.2834   -5.5171 F         1 <0>        -0.1750
     17 F2         -2.1245   -4.1927   -6.0026 F         1 <0>        -0.1758
     18 F3         -0.1225   -3.1200   -6.2490 F         1 <0>        -0.1763
     19 C14        -2.3874    0.0210    0.0164 C.2       1 <0>         0.5779
     20 O2         -2.3911    1.2385    0.0321 O.2       1 <0>        -0.5292
     21 N2         -3.5525   -0.6565    0.0159 N.am      1 <0>        -0.6695
     22 C15        -4.7648    0.0353    0.1316 C.ar      1 <0>         0.1128
     23 C16        -4.9073    1.2904   -0.4616 C.ar      1 <0>        -0.0629
     24 C17        -6.0802    1.9808   -0.3607 C.ar      1 <0>        -0.1258
     25 C18        -7.1535    1.4355    0.3401 C.ar      1 <0>         0.1188
     26 C19        -7.0209    0.1698    0.9421 C.ar      1 <0>        -0.1634
     27 C20        -5.8146   -0.5304    0.8269 C.ar      1 <0>        -0.0705
     28 C21        -8.2986   -0.1139    1.5877 C.2       1 <0>         0.0747
     29 N3         -9.0875    0.8998    1.3721 N.2       1 <0>        -0.2469
     30 N4         -8.4261    1.8703    0.6126 N.pl3     1 <0>        -0.5104
     31 H1         -8.8059    2.7152    0.3249 H         1 <0>         0.4406
     32 H2          1.0047    1.8793    0.0113 H         1 <0>         0.0630
     33 H3         -0.5469    1.8696   -0.8609 H         1 <0>         0.1045
     34 H4         -0.5263    1.8473    0.9188 H         1 <0>         0.1060
     35 H5         -2.0762   -2.5595    0.4360 H         1 <0>         0.1049
     36 H6         -0.1209   -2.5531    1.8335 H         1 <0>         0.1177
     37 H7          0.1800   -3.7722    0.5714 H         1 <0>         0.1187
     38 H8          2.0049   -0.1935   -0.2994 H         1 <0>         0.4184
     39 H9          0.8045   -1.7234   -1.8169 H         1 <0>         0.1300
     40 H10         0.9425   -2.5153   -4.1443 H         1 <0>         0.1368
     41 H11        -2.7954   -4.5170   -3.6847 H         1 <0>         0.1399
     42 H12        -2.9293   -3.7320   -1.3547 H         1 <0>         0.1380
     43 H13        -3.5514   -1.6231   -0.0645 H         1 <0>         0.4063
     44 H14        -4.0799    1.7204   -1.0065 H         1 <0>         0.1480
     45 H15        -6.1763    2.9514   -0.8245 H         1 <0>         0.1298
     46 H16        -5.7046   -1.5038    1.2818 H         1 <0>         0.1323
     47 H17        -8.5461   -1.0056    2.1445 H         1 <0>         0.1978
@<TRIPOS>BOND
     1    1    2 1
     2    1   32 1
     3    1   33 1
     4    1   34 1
     5    2    8 1
     6    2    3 2
     7    3    4 1
     8    3   19 1
     9    4    5 1
    10    4    9 1
    11    4   35 1
    12    5    6 1
    13    5   36 1
    14    5   37 1
    15    6    7 2
    16    6    8 am
    17    8   38 1
    18    9   14 ar
    19    9   10 ar
    20   10   11 ar
    21   10   39 1
    22   11   12 ar
    23   11   40 1
    24   12   13 ar
    25   12   15 1
    26   13   14 ar
    27   13   41 1
    28   14   42 1
    29   15   16 1
    30   15   17 1
    31   15   18 1
    32   19   20 2
    33   19   21 am
    34   21   22 1
    35   21   43 1
    36   22   27 ar
    37   22   23 ar
    38   23   24 ar
    39   23   44 1
    40   24   25 ar
    41   24   45 1
    42   25   30 1
    43   25   26 ar
    44   26   27 ar
    45   26   28 1
    46   27   46 1
    47   28   29 2
    48   28   47 1
    49   29   30 1
    50   30   31 1
@<TRIPOS>MOLECULE
CHEMBL218719__1
   47    50     0     0     0
SMALL
USER_CHARGES

@<TRIPOS>ATOM
      1 C1         -0.0180    1.5022    0.0184 C.3       1 <0>        -0.1191
      2 C2          0.0021   -0.0046   -0.0019 C.2       1 <0>         0.2411
      3 C3         -1.1578   -0.6837   -0.0025 C.2       1 <0>        -0.2778
      4 C4         -1.1577   -2.1901   -0.0228 C.3       1 <0>         0.0014
      5 C5          0.0359   -2.6873   -0.8409 C.3       1 <0>        -0.1352
      6 C6          1.2781   -1.9506   -0.4117 C.2       1 <0>         0.5215
      7 O1          2.3496   -2.5181   -0.4203 O.2       1 <0>        -0.4994
      8 N1          1.2038   -0.6653   -0.0253 N.am      1 <0>        -0.6607
      9 C7         -1.0530   -2.7118    1.3872 C.ar      1 <0>        -0.0502
     10 C8          0.0410   -2.3837    2.1660 C.ar      1 <0>        -0.1195
     11 C9          0.1370   -2.8623    3.4593 C.ar      1 <0>        -0.0620
     12 C10        -0.8610   -3.6684    3.9739 C.ar      1 <0>        -0.1809
     13 C11        -1.9554   -3.9957    3.1954 C.ar      1 <0>        -0.0627
     14 C12        -2.0535   -3.5137    1.9035 C.ar      1 <0>        -0.1130
     15 C13        -0.7558   -4.1909    5.3835 C.3       1 <0>         0.5073
     16 F1         -1.3575   -3.2845    6.2630 F         1 <0>        -0.1751
     17 F2         -1.4045   -5.4273    5.4723 F         1 <0>        -0.1758
     18 F3          0.5923   -4.3461    5.7239 F         1 <0>        -0.1761
     19 C14        -2.3874    0.0210    0.0157 C.2       1 <0>         0.5779
     20 O2         -2.3911    1.2385    0.0318 O.2       1 <0>        -0.5293
     21 N2         -3.5525   -0.6564    0.0153 N.am      1 <0>        -0.6692
     22 C15        -4.7648    0.0353    0.1303 C.ar      1 <0>         0.1127
     23 C16        -4.9072    1.2902   -0.4635 C.ar      1 <0>        -0.0633
     24 C17        -6.0801    1.9806   -0.3632 C.ar      1 <0>        -0.1260
     25 C18        -7.1536    1.4357    0.3375 C.ar      1 <0>         0.1186
     26 C19        -7.0211    0.1703    0.9401 C.ar      1 <0>        -0.1633
     27 C20        -5.8148   -0.5300    0.8256 C.ar      1 <0>        -0.0696
     28 C21        -8.2991   -0.1132    1.5855 C.2       1 <0>         0.0749
     29 N3         -9.0879    0.9005    1.3693 N.2       1 <0>        -0.2468
     30 N4         -8.4263    1.8705    0.6095 N.pl3     1 <0>        -0.5104
     31 H1         -8.8060    2.7153    0.3213 H         1 <0>         0.4406
     32 H2          1.0046    1.8793    0.0110 H         1 <0>         0.0631
     33 H3         -0.5474    1.8703   -0.8604 H         1 <0>         0.1062
     34 H4         -0.5258    1.8466    0.9193 H         1 <0>         0.1044
     35 H5         -2.0827   -2.5476   -0.4751 H         1 <0>         0.1040
     36 H6          0.1711   -3.7560   -0.6742 H         1 <0>         0.1184
     37 H7         -0.1476   -2.5046   -1.8997 H         1 <0>         0.1177
     38 H8          2.0114   -0.2005    0.2442 H         1 <0>         0.4180
     39 H9          0.8207   -1.7539    1.7640 H         1 <0>         0.1293
     40 H10         0.9920   -2.6065    4.0676 H         1 <0>         0.1367
     41 H11        -2.7350   -4.6259    3.5973 H         1 <0>         0.1401
     42 H12        -2.9103   -3.7664    1.2965 H         1 <0>         0.1378
     43 H13        -3.5514   -1.6231   -0.0647 H         1 <0>         0.4062
     44 H14        -4.0796    1.7199   -1.0083 H         1 <0>         0.1482
     45 H15        -6.1761    2.9510   -0.8275 H         1 <0>         0.1298
     46 H16        -5.7050   -1.5032    1.2810 H         1 <0>         0.1319
     47 H17        -8.5466   -1.0046    2.1427 H         1 <0>         0.1977
@<TRIPOS>BOND
     1    1    2 1
     2    1   32 1
     3    1   33 1
     4    1   34 1
     5    2    8 1
     6    2    3 2
     7    3    4 1
     8    3   19 1
     9    4    5 1
    10    4    9 1
    11    4   35 1
    12    5    6 1
    13    5   36 1
    14    5   37 1
    15    6    7 2
    16    6    8 am
    17    8   38 1
    18    9   14 ar
    19    9   10 ar
    20   10   11 ar
    21   10   39 1
    22   11   12 ar
    23   11   40 1
    24   12   13 ar
    25   12   15 1
    26   13   14 ar
    27   13   41 1
    28   14   42 1
    29   15   16 1
    30   15   17 1
    31   15   18 1
    32   19   20 2
    33   19   21 am
    34   21   22 1
    35   21   43 1
    36   22   27 ar
    37   22   23 ar
    38   23   24 ar
    39   23   44 1
    40   24   25 ar
    41   24   45 1
    42   25   30 1
    43   25   26 ar
    44   26   27 ar
    45   26   28 1
    46   27   46 1
    47   28   29 2
    48   28   47 1
    49   29   30 1
    50   30   31 1
@<TRIPOS>MOLECULE
CHEMBL162
   62    69     0     0     0
SMALL
USER_CHARGES

@<TRIPOS>ATOM
      1 C1         -0.1276    1.5938   -0.2902 C.3       1 <0>        -0.1687
      2 C2         -0.0844    0.0680   -0.1855 C.3       1 <0>         0.3345
      3 C3          0.5692   -0.4497   -1.4608 C.3       1 <0>         0.0405
      4 H1          1.4795    0.1163   -1.6584 H         1 <0>         0.1372
      5 C4          0.9165   -1.9328   -1.2885 C.3       1 <0>        -0.0062
      6 H2          1.3941   -2.3067   -2.1942 H         1 <0>         0.1555
      7 C5          1.8808   -2.0612   -0.1039 C.3       1 <0>        -0.1828
      8 C6          1.2106   -1.5234    1.1545 C.3       1 <0>         0.3001
      9 O1          0.6584   -0.2480    0.9698 O.3       1 <0>        -0.3232
     10 N1          0.2248   -2.4800    1.6600 N.pl3     1 <0>        -0.5368
     11 C7          0.4774   -3.5588    2.4701 C.ar      1 <0>         0.1470
     12 C8          1.6719   -4.0282    3.0159 C.ar      1 <0>        -0.1521
     13 C9          1.6013   -5.1613    3.8083 C.ar      1 <0>        -0.0582
     14 C10         0.4065   -5.8141    4.0588 C.ar      1 <0>        -0.1457
     15 C11        -0.7928   -5.3694    3.5296 C.ar      1 <0>        -0.0281
     16 C12        -0.7420   -4.2270    2.7281 C.ar      1 <0>        -0.1133
     17 C13        -1.7834   -3.4873    2.0211 C.ar      1 <0>         0.0272
     18 C14        -1.1387   -2.4235    1.3862 C.ar      1 <0>         0.0375
     19 C15        -1.8766   -1.5121    0.6225 C.ar      1 <0>         0.0893
     20 N2         -1.4701   -0.3965   -0.1042 N.pl3     1 <0>        -0.5183
     21 C16        -2.5609    0.1893   -0.7020 C.ar      1 <0>         0.1620
     22 C17        -2.6555    1.3256   -1.5046 C.ar      1 <0>        -0.1301
     23 C18        -3.9158    1.6704   -1.9636 C.ar      1 <0>        -0.0737
     24 C19        -5.0430    0.9315   -1.6503 C.ar      1 <0>        -0.1357
     25 C20        -4.9749   -0.2010   -0.8555 C.ar      1 <0>        -0.0503
     26 C21        -3.7134   -0.5626   -0.3834 C.ar      1 <0>        -0.1044
     27 C22        -3.2655   -1.6685    0.4924 C.ar      1 <0>        -0.0362
     28 C23        -3.9045   -2.7331    1.1195 C.ar      1 <0>        -0.0289
     29 C24        -3.1819   -3.6452    1.8815 C.ar      1 <0>        -0.1255
     30 C25        -4.1160   -4.6505    2.4114 C.2       1 <0>         0.5633
     31 O2         -3.7988   -5.5888    3.1172 O.2       1 <0>        -0.5106
     32 N3         -5.3694   -4.3854    2.0058 N.am      1 <0>        -0.7162
     33 C26        -5.3459   -3.1769    1.1740 C.3       1 <0>         0.1359
     34 N4         -0.3065   -2.7008   -1.0194 N.4       1 <0>        -0.5253
     35 C27         0.0148   -4.1335   -0.9747 C.3       1 <0>        -0.0497
     36 O3         -0.3352   -0.2957   -2.5564 O.3       1 <0>        -0.3613
     37 C28         0.3074   -0.0892   -3.8159 C.3       1 <0>         0.0162
     38 H3          0.8308    2.0068    0.0247 H         1 <0>         0.0984
     39 H4         -0.3256    1.8817   -1.3227 H         1 <0>         0.1037
     40 H5         -0.9185    1.9799    0.3528 H         1 <0>         0.0921
     41 H6          2.1400   -3.1098    0.0419 H         1 <0>         0.1233
     42 H7          2.7852   -1.4878   -0.3076 H         1 <0>         0.1455
     43 H8          1.9835   -1.4379    1.9183 H         1 <0>         0.1550
     44 H9          2.6113   -3.5296    2.8282 H         1 <0>         0.1364
     45 H10         2.5093   -5.5494    4.2456 H         1 <0>         0.1359
     46 H11         0.4102   -6.6943    4.6846 H         1 <0>         0.1352
     47 H12        -1.7231   -5.8814    3.7271 H         1 <0>         0.1602
     48 H13        -1.7841    1.9115   -1.7569 H         1 <0>         0.1438
     49 H14        -4.0225    2.5459   -2.5869 H         1 <0>         0.1335
     50 H15        -6.0015    1.2460   -2.0361 H         1 <0>         0.1333
     51 H16        -5.8562   -0.7761   -0.6128 H         1 <0>         0.1416
     52 H17        -6.1577   -4.9060    2.2257 H         1 <0>         0.4348
     53 H18        -5.9609   -2.3989    1.6262 H         1 <0>         0.1115
     54 H19        -5.7062   -3.4047    0.1708 H         1 <0>         0.1104
     55 H20        -0.6946   -2.4153   -0.1328 H         1 <0>         0.4186
     56 H21         0.7414   -4.3184   -0.1836 H         1 <0>         0.1191
     57 H22        -0.8927   -4.7033   -0.7750 H         1 <0>         0.1256
     58 H23         0.4340   -4.4418   -1.9324 H         1 <0>         0.1255
     59 H24        -0.4469    0.0185   -4.5954 H         1 <0>         0.1100
     60 H25         0.9142    0.8152   -3.7703 H         1 <0>         0.0633
     61 H26         0.9451   -0.9435   -4.0429 H         1 <0>         0.0514
     62 H27        -0.9792   -2.5296   -1.7517 H         1 <0>         0.4274
@<TRIPOS>BOND
     1    1    2 1
     2    1   38 1
     3    1   39 1
     4    1   40 1
     5    2    9 1
     6    2   20 1
     7    2    3 1
     8    3    4 1
     9    3    5 1
    10    3   36 1
    11    5    6 1
    12    5    7 1
    13    5   34 1
    14    7    8 1
    15    7   41 1
    16    7   42 1
    17    8    9 1
    18    8   10 1
    19    8   43 1
    20   10   18 1
    21   10   11 1
    22   11   16 ar
    23   11   12 ar
    24   12   13 ar
    25   12   44 1
    26   13   14 ar
    27   13   45 1
    28   14   15 ar
    29   14   46 1
    30   15   16 ar
    31   15   47 1
    32   16   17 1
    33   17   29 ar
    34   17   18 ar
    35   18   19 ar
    36   19   27 ar
    37   19   20 1
    38   20   21 1
    39   21   26 ar
    40   21   22 ar
    41   22   23 ar
    42   22   48 1
    43   23   24 ar
    44   23   49 1
    45   24   25 ar
    46   24   50 1
    47   25   26 ar
    48   25   51 1
    49   26   27 1
    50   27   28 ar
    51   28   33 1
    52   28   29 ar
    53   29   30 1
    54   30   31 2
    55   30   32 am
    56   32   33 1
    57   32   52 1
    58   33   53 1
    59   33   54 1
    60   34   35 1
    61   34   55 1
    62   34   62 1
    63   35   56 1
    64   35   57 1
    65   35   58 1
    66   36   37 1
    67   37   59 1
    68   37   60 1
    69   37   61 1
@<TRIPOS>MOLECULE
CHEMBL162__1
   61    68     0     0     0
SMALL
USER_CHARGES

@<TRIPOS>ATOM
      1 C1         -0.0567    1.5513   -0.0894 C.3       1 <0>        -0.1681
      2 C2         -0.0278    0.0218   -0.0599 C.3       1 <0>         0.3623
      3 C3          0.5811   -0.4397   -1.3782 C.3       1 <0>         0.0679
      4 H1          1.4914    0.1262   -1.5761 H         1 <0>         0.0865
      5 C4          0.9165   -1.9328   -1.2885 C.3       1 <0>         0.0550
      6 H2          1.3622   -2.2669   -2.2254 H         1 <0>         0.0644
      7 C5          1.9146   -2.1282   -0.1417 C.3       1 <0>        -0.1713
      8 C6          1.2889   -1.6457    1.1613 C.3       1 <0>         0.3303
      9 O1          0.7459   -0.3574    1.0554 O.3       1 <0>        -0.3432
     10 N1          0.3079   -2.6158    1.6500 N.pl3     1 <0>        -0.5147
     11 C7          0.5725   -3.7353    2.3988 C.ar      1 <0>         0.1480
     12 C8          1.7775   -4.2425    2.8844 C.ar      1 <0>        -0.1567
     13 C9          1.7179   -5.4120    3.6229 C.ar      1 <0>        -0.0771
     14 C10         0.5239   -6.0644    3.8782 C.ar      1 <0>        -0.1623
     15 C11        -0.6857   -5.5826    3.4081 C.ar      1 <0>        -0.0380
     16 C12        -0.6461   -4.4031    2.6615 C.ar      1 <0>        -0.1052
     17 C13        -1.6998   -3.6196    2.0235 C.ar      1 <0>        -0.0146
     18 C14        -1.0625   -2.5326    1.4212 C.ar      1 <0>         0.1328
     19 C15        -1.8127   -1.5778    0.7254 C.ar      1 <0>         0.2189
     20 N2         -1.4156   -0.4323    0.0413 N.pl3     1 <0>        -0.4798
     21 C16        -2.5171    0.1927   -0.4937 C.ar      1 <0>         0.1719
     22 C17        -2.6230    1.3676   -1.2371 C.ar      1 <0>        -0.1371
     23 C18        -3.8926    1.7468   -1.6400 C.ar      1 <0>        -0.0918
     24 C19        -5.0181    1.0048   -1.3284 C.ar      1 <0>        -0.1543
     25 C20        -4.9390   -0.1657   -0.5916 C.ar      1 <0>        -0.0609
     26 C21        -3.6680   -0.5623   -0.1765 C.ar      1 <0>        -0.0961
     27 C22        -3.2066   -1.7140    0.6307 C.ar      1 <0>        -0.0806
     28 C23        -3.8384   -2.8014    1.2249 C.ar      1 <0>        -0.0396
     29 C24        -3.1037   -3.7566    1.9194 C.ar      1 <0>        -0.1488
     30 C25        -4.0327   -4.7771    2.4285 C.2       1 <0>         0.5678
     31 O2         -3.7051   -5.7517    3.0781 O.2       1 <0>        -0.5303
     32 N3         -5.2947   -4.4802    2.0748 N.am      1 <0>        -0.7263
     33 C26        -5.2825   -3.2330    1.3021 C.3       1 <0>         0.1443
     34 N4         -0.3065   -2.7008   -1.0194 N.3       1 <0>        -0.6725
     35 C27        -0.9816   -3.0711   -2.2704 C.3       1 <0>         0.0321
     36 O3         -0.3541   -0.2236   -2.4368 O.3       1 <0>        -0.3500
     37 C28         0.2525    0.0376   -3.7040 C.3       1 <0>         0.0254
     38 H3          0.9143    1.9390    0.2190 H         1 <0>         0.0847
     39 H4         -0.2789    1.8910   -1.1010 H         1 <0>         0.0945
     40 H5         -0.8258    1.9134    0.5927 H         1 <0>         0.0811
     41 H6          2.1661   -3.1852   -0.0547 H         1 <0>         0.0955
     42 H7          2.8189   -1.5546   -0.3450 H         1 <0>         0.1024
     43 H8          2.0854   -1.6051    1.9042 H         1 <0>         0.1256
     44 H9          2.7165   -3.7447    2.6923 H         1 <0>         0.1264
     45 H10         2.6343   -5.8299    4.0129 H         1 <0>         0.1227
     46 H11         0.5364   -6.9739    4.4603 H         1 <0>         0.1222
     47 H12        -1.6153   -6.0942    3.6091 H         1 <0>         0.1517
     48 H13        -1.7529    1.9564   -1.4875 H         1 <0>         0.1345
     49 H14        -4.0081    2.6526   -2.2167 H         1 <0>         0.1197
     50 H15        -5.9842    1.3471   -1.6689 H         1 <0>         0.1193
     51 H16        -5.8191   -0.7431   -0.3501 H         1 <0>         0.1299
     52 H17        -6.0819   -5.0031    2.2935 H         1 <0>         0.4244
     53 H18        -5.8747   -2.4718    1.8101 H         1 <0>         0.0969
     54 H19        -5.6755   -3.4081    0.3006 H         1 <0>         0.0963
     55 H20        -0.1054   -3.5172   -0.4616 H         1 <0>         0.3444
     56 H21        -1.8838   -3.6387   -2.0422 H         1 <0>         0.0645
     57 H22        -1.2495   -2.1685   -2.8197 H         1 <0>         0.0818
     58 H23        -0.3126   -3.6808   -2.8776 H         1 <0>         0.0150
     59 H24        -0.5237    0.1905   -4.4538 H         1 <0>         0.0929
     60 H25         0.8707    0.9325   -3.6333 H         1 <0>         0.0448
     61 H26         0.8732   -0.8111   -3.9915 H         1 <0>         0.0400
@<TRIPOS>BOND
     1    1    2 1
     2    1   38 1
     3    1   39 1
     4    1   40 1
     5    2    9 1
     6    2   20 1
     7    2    3 1
     8    3    4 1
     9    3    5 1
    10    3   36 1
    11    5    6 1
    12    5    7 1
    13    5   34 1
    14    7    8 1
    15    7   41 1
    16    7   42 1
    17    8    9 1
    18    8   10 1
    19    8   43 1
    20   10   18 1
    21   10   11 1
    22   11   16 ar
    23   11   12 ar
    24   12   13 ar
    25   12   44 1
    26   13   14 ar
    27   13   45 1
    28   14   15 ar
    29   14   46 1
    30   15   16 ar
    31   15   47 1
    32   16   17 1
    33   17   29 ar
    34   17   18 ar
    35   18   19 ar
    36   19   27 ar
    37   19   20 1
    38   20   21 1
    39   21   26 ar
    40   21   22 ar
    41   22   23 ar
    42   22   48 1
    43   23   24 ar
    44   23   49 1
    45   24   25 ar
    46   24   50 1
    47   25   26 ar
    48   25   51 1
    49   26   27 1
    50   27   28 ar
    51   28   33 1
    52   28   29 ar
    53   29   30 1
    54   30   31 2
    55   30   32 am
    56   32   33 1
    57   32   52 1
    58   33   53 1
    59   33   54 1
    60   34   35 1
    61   34   55 1
    62   35   56 1
    63   35   57 1
    64   35   58 1
    65   36   37 1
    66   37   59 1
    67   37   60 1
    68   37   61 1
@<TRIPOS>MOLECULE
CHEMBL523586
   48    51     0     0     0
SMALL
USER_CHARGES

@<TRIPOS>ATOM
      1 C1          0.3742    1.8563   -0.3947 C.ar      1 <0>        -0.0820
      2 C2          1.5655    2.5384   -0.2295 C.ar      1 <0>        -0.1253
      3 C3          2.7614    1.8459   -0.2007 C.ar      1 <0>        -0.0734
      4 C4          2.7677    0.4705   -0.3374 C.ar      1 <0>        -0.1477
      5 C5          1.5755   -0.2135   -0.5029 C.ar      1 <0>         0.1090
      6 C6          0.3780    0.4813   -0.5312 C.ar      1 <0>        -0.1453
      7 F1          1.5804   -1.5578   -0.6371 F         1 <0>        -0.1323
      8 C7          4.0590    2.5908   -0.0206 C.3       1 <0>        -0.0838
      9 C8          4.3812    2.7006    1.4710 C.3       1 <0>         0.1217
     10 H1          4.3860    1.7056    1.9159 H         1 <0>         0.1245
     11 C9          5.7571    3.3456    1.6494 C.3       1 <0>        -0.0222
     12 N1          6.0155    3.5605    3.0795 N.4       1 <0>        -0.6348
     13 N2          3.3660    3.5256    2.1305 N.am      1 <0>        -0.7308
     14 C10         3.1241    3.3719    3.4475 C.2       1 <0>         0.6127
     15 O1          3.7492    2.5477    4.0889 O.2       1 <0>        -0.5334
     16 C11         2.1084    4.1972    4.1073 C.2       1 <0>        -0.2765
     17 C12         1.7166    4.1988    5.4384 C.2       1 <0>        -0.0193
     18 C13         0.7374    5.0665    5.8334 C.2       1 <0>        -0.1492
     19 C14         0.1742    5.9112    4.8877 C.2       1 <0>        -0.0142
     20 S1          1.0638    5.4636    3.4060 S.3       1 <0>         0.1722
     21 C15        -0.8841    6.9231    5.0627 C.ar      1 <0>         0.0347
     22 C16        -0.8339    7.8477    6.1104 C.ar      1 <0>        -0.1479
     23 C17        -1.8473    8.7790    6.2372 C.ar      1 <0>         0.1417
     24 N3         -2.8611    8.8195    5.3972 N.ar      1 <0>        -0.4753
     25 C18        -2.9688    7.9716    4.3826 C.ar      1 <0>         0.2910
     26 C19        -1.9774    6.9948    4.1763 C.ar      1 <0>        -0.1239
     27 C20        -2.3832    6.2417    2.9926 C.2       1 <0>        -0.2115
     28 C21        -3.5377    6.7805    2.5641 C.2       1 <0>         0.0888
     29 N4         -3.9054    7.8085    3.3896 N.pl3     1 <0>        -0.5767
     30 H2         -4.7029    8.3502    3.2824 H         1 <0>         0.4275
     31 Br1         0.1609    5.1146    7.6337 Br        1 <0>         0.0017
     32 H3         -0.5600    2.3979   -0.4126 H         1 <0>         0.1383
     33 H4          1.5617    3.6132   -0.1233 H         1 <0>         0.1255
     34 H5          3.7022   -0.0703   -0.3156 H         1 <0>         0.1375
     35 H6         -0.5527   -0.0513   -0.6599 H         1 <0>         0.1410
     36 H7          4.8603    2.0524   -0.5268 H         1 <0>         0.1097
     37 H8          3.9667    3.5897   -0.4469 H         1 <0>         0.0977
     38 H9          6.5227    2.6886    1.2367 H         1 <0>         0.1521
     39 H10         5.7801    4.3026    1.1282 H         1 <0>         0.1404
     40 H11         5.9942    2.6746    3.5620 H         1 <0>         0.4430
     41 H12         6.9229    3.9858    3.1971 H         1 <0>         0.4376
     42 H13         2.8678    4.1824    1.6194 H         1 <0>         0.4147
     43 H14         2.1762    3.5272    6.1484 H         1 <0>         0.1600
     44 H15        -0.0133    7.8341    6.8124 H         1 <0>         0.1462
     45 H16        -1.8070    9.4925    7.0470 H         1 <0>         0.1736
     46 H17        -1.8562    5.4112    2.5466 H         1 <0>         0.1500
     47 H18        -4.0968    6.4457    1.7029 H         1 <0>         0.1860
     48 H19         5.3068    4.1687    3.4616 H         1 <0>         0.4268
@<TRIPOS>BOND
     1    1    6 ar
     2    1    2 ar
     3    1   32 1
     4    2    3 ar
     5    2   33 1
     6    3    4 ar
     7    3    8 1
     8    4    5 ar
     9    4   34 1
    10    5    6 ar
    11    5    7 1
    12    6   35 1
    13    8    9 1
    14    8   36 1
    15    8   37 1
    16    9   10 1
    17    9   11 1
    18    9   13 1
    19   11   12 1
    20   11   38 1
    21   11   39 1
    22   12   40 1
    23   12   41 1
    24   12   48 1
    25   13   14 am
    26   13   42 1
    27   14   15 2
    28   14   16 1
    29   16   20 1
    30   16   17 2
    31   17   18 1
    32   17   43 1
    33   18   19 2
    34   18   31 1
    35   19   20 1
    36   19   21 1
    37   21   26 ar
    38   21   22 ar
    39   22   23 ar
    40   22   44 1
    41   23   24 ar
    42   23   45 1
    43   24   25 ar
    44   25   29 1
    45   25   26 ar
    46   26   27 1
    47   27   28 2
    48   27   46 1
    49   28   29 1
    50   28   47 1
    51   29   30 1
@<TRIPOS>MOLECULE
CHEMBL1080279
   57    60     0     0     0
SMALL
USER_CHARGES

@<TRIPOS>ATOM
      1 C1         -0.0178    1.4648    0.0101 C.3       1 <0>        -0.0463
      2 N1          0.0021   -0.0041    0.0020 N.4       1 <0>        -0.3790
      3 C2          0.7126   -0.4907    1.1921 C.3       1 <0>        -0.0577
      4 C3         -1.3761   -0.5125    0.0124 C.3       1 <0>        -0.0258
      5 C4         -1.3584   -2.0365   -0.1216 C.3       1 <0>         0.0683
      6 N2         -2.7328   -2.5436   -0.1112 N.am      1 <0>        -0.5836
      7 C5         -3.4704   -2.6866   -1.3689 C.3       1 <0>         0.1558
      8 C6         -3.2346   -4.0629   -1.9358 C.ar      1 <0>        -0.0844
      9 C7         -2.1736   -4.2838   -2.7948 C.ar      1 <0>        -0.1474
     10 C8         -1.9547   -5.5452   -3.3166 C.ar      1 <0>        -0.0800
     11 C9         -2.7961   -6.5884   -2.9811 C.ar      1 <0>        -0.1978
     12 C10        -3.8610   -6.3694   -2.1196 C.ar      1 <0>         0.1321
     13 C11        -4.0751   -5.1039   -1.5925 C.ar      1 <0>        -0.1270
     14 O1         -4.6901   -7.3940   -1.7881 O.3       1 <0>        -0.3139
     15 C12        -4.4059   -8.6707   -2.3636 C.3       1 <0>         0.0249
     16 C13        -3.3187   -2.8786    1.0554 C.2       1 <0>         0.6121
     17 O2         -4.4592   -3.2993    1.0640 O.2       1 <0>        -0.4780
     18 C14        -2.5750   -2.7343    2.3236 C.2       1 <0>         0.0652
     19 N3         -1.3504   -2.2970    2.5173 N.2       1 <0>        -0.4795
     20 C15        -0.7926   -2.2163    3.7287 C.ar      1 <0>         0.0380
     21 C16         0.5112   -1.7648    4.0632 C.ar      1 <0>        -0.0540
     22 C17         0.9329   -1.7434    5.3507 C.ar      1 <0>        -0.1109
     23 C18         0.1069   -2.1630    6.4012 C.ar      1 <0>         0.0706
     24 C19        -1.1789   -2.6129    6.1148 C.ar      1 <0>        -0.0751
     25 C20        -1.6089   -2.6357    4.8114 C.ar      1 <0>        -0.1228
     26 S1         -3.1128   -3.1025    3.9884 S.3       1 <0>         0.1359
     27 C21         0.5964   -2.1288    7.8015 C.2       1 <0>        -0.2251
     28 C22         1.8269   -1.7077    8.2160 C.2       1 <0>         0.0978
     29 N4          1.8709   -1.8353    9.5574 N.pl3     1 <0>        -0.4632
     30 H1          2.6245   -1.6109   10.1255 H         1 <0>         0.4483
     31 N5          0.6413   -2.3471    9.9892 N.2       1 <0>        -0.2801
     32 C23        -0.1264   -2.5194    8.9461 C.2       1 <0>         0.0761
     33 H2          1.0047    1.8421    0.0024 H         1 <0>         0.1260
     34 H3         -0.5450    1.8259   -0.8730 H         1 <0>         0.1238
     35 H4         -0.5280    1.8163    0.9069 H         1 <0>         0.1207
     36 H5          1.7352   -0.1134    1.1844 H         1 <0>         0.1243
     37 H6          0.2024   -0.1392    2.0889 H         1 <0>         0.1241
     38 H7          0.7273   -1.5806    1.1861 H         1 <0>         0.1299
     39 H8         -1.8584   -0.2358    0.9500 H         1 <0>         0.1296
     40 H9         -1.9290   -0.0808   -0.8218 H         1 <0>         0.1313
     41 H10        -0.8762   -2.3132   -1.0592 H         1 <0>         0.1000
     42 H11        -0.8055   -2.4683    0.7126 H         1 <0>         0.1390
     43 H12        -4.5354   -2.5477   -1.1834 H         1 <0>         0.1081
     44 H13        -3.1246   -1.9366   -2.0802 H         1 <0>         0.0981
     45 H14        -1.5152   -3.4695   -3.0589 H         1 <0>         0.1192
     46 H15        -1.1254   -5.7151   -3.9872 H         1 <0>         0.1280
     47 H16        -2.6251   -7.5735   -3.3895 H         1 <0>         0.1317
     48 H17        -4.9007   -4.9319   -0.9179 H         1 <0>         0.1383
     49 H18        -4.4508   -8.5975   -3.4502 H         1 <0>         0.0587
     50 H19        -3.4088   -8.9914   -2.0619 H         1 <0>         0.0570
     51 H20        -5.1414   -9.3970   -2.0177 H         1 <0>         0.1056
     52 H21         1.1769   -1.4337    3.2798 H         1 <0>         0.1296
     53 H22         1.9307   -1.3946    5.5724 H         1 <0>         0.1387
     54 H23        -1.8317   -2.9412    6.9101 H         1 <0>         0.1430
     55 H24         2.6214   -1.3396    7.5839 H         1 <0>         0.1851
     56 H25        -1.1380   -2.8975    8.9588 H         1 <0>         0.1903
     57 H26         0.4744   -0.3295   -0.8281 H         1 <0>         0.4260
@<TRIPOS>BOND
     1    1    2 1
     2    1   33 1
     3    1   34 1
     4    1   35 1
     5    2    3 1
     6    2    4 1
     7    2   57 1
     8    3   36 1
     9    3   37 1
    10    3   38 1
    11    4    5 1
    12    4   39 1
    13    4   40 1
    14    5    6 1
    15    5   41 1
    16    5   42 1
    17    6    7 1
    18    6   16 am
    19    7    8 1
    20    7   43 1
    21    7   44 1
    22    8   13 ar
    23    8    9 ar
    24    9   10 ar
    25    9   45 1
    26   10   11 ar
    27   10   46 1
    28   11   12 ar
    29   11   47 1
    30   12   13 ar
    31   12   14 1
    32   13   48 1
    33   14   15 1
    34   15   49 1
    35   15   50 1
    36   15   51 1
    37   16   17 2
    38   16   18 1
    39   18   26 1
    40   18   19 2
    41   19   20 1
    42   20   25 ar
    43   20   21 ar
    44   21   22 ar
    45   21   52 1
    46   22   23 ar
    47   22   53 1
    48   23   24 ar
    49   23   27 1
    50   24   25 ar
    51   24   54 1
    52   25   26 1
    53   27   32 1
    54   27   28 2
    55   28   29 1
    56   28   55 1
    57   29   30 1
    58   29   31 1
    59   31   32 2
    60   32   56 1
@<TRIPOS>MOLECULE
CHEMBL225168
   43    46     0     0     0
SMALL
USER_CHARGES

@<TRIPOS>ATOM
      1 C1         -0.0168    1.3909    0.0097 C.ar      1 <0>        -0.1271
      2 C2          1.1468    2.1049    0.0024 C.ar      1 <0>        -0.0939
      3 C3          2.3718    1.4432   -0.0129 C.ar      1 <0>         0.0956
      4 C4          2.4029    0.0355   -0.0207 C.ar      1 <0>        -0.1364
      5 C5          1.2032   -0.6850   -0.0131 C.ar      1 <0>        -0.1107
      6 C6          0.0021   -0.0041    0.0020 C.ar      1 <0>         0.1603
      7 N1         -1.2023   -0.7168    0.0097 N.pl3     1 <0>        -0.7587
      8 C7         -2.4787    0.0020    0.0258 C.3       1 <0>         0.1380
      9 C8         -2.8515    0.3500    1.4698 C.3       1 <0>        -0.1544
     10 C9         -3.0522   -0.9457    2.2612 C.3       1 <0>        -0.1399
     11 C10        -4.1234   -1.7956    1.5744 C.3       1 <0>        -0.0134
     12 N2         -3.6963   -2.1167    0.2073 N.4       1 <0>        -0.3825
     13 C11        -3.5712   -0.8831   -0.5781 C.3       1 <0>        -0.0138
     14 C12        -4.6908   -2.9967   -0.4209 C.3       1 <0>         0.0762
     15 C13        -4.7254   -4.3158    0.3070 C.2       1 <0>        -0.2565
     16 C14        -3.9415   -5.4570    0.0205 C.2       1 <0>        -0.2080
     17 C15        -4.2914   -6.4034    0.9100 C.2       1 <0>        -0.0074
     18 O1         -5.2402   -5.8988    1.7155 O.3       1 <0>        -0.1578
     19 C16        -5.5038   -4.6315    1.3576 C.2       1 <0>         0.0172
     20 C17         3.8119   -0.3442   -0.0367 C.2       1 <0>         0.0655
     21 N3          4.5194    0.7494   -0.0378 N.2       1 <0>        -0.2339
     22 N4          3.6776    1.8662   -0.0235 N.pl3     1 <0>        -0.5073
     23 H1          3.9697    2.7912   -0.0219 H         1 <0>         0.4429
     24 H2         -0.9627    1.9119    0.0261 H         1 <0>         0.1293
     25 H3          1.1172    3.1844    0.0082 H         1 <0>         0.1316
     26 H4          1.2168   -1.7649   -0.0194 H         1 <0>         0.1270
     27 H5         -1.1919   -1.6867    0.0044 H         1 <0>         0.3879
     28 H6         -2.3881    0.9179   -0.5582 H         1 <0>         0.1232
     29 H7         -2.0498    0.9333    1.9227 H         1 <0>         0.0985
     30 H8         -3.7749    0.9291    1.4784 H         1 <0>         0.0897
     31 H9         -2.1144   -1.5001    2.2956 H         1 <0>         0.0879
     32 H10        -3.3721   -0.7068    3.2754 H         1 <0>         0.1115
     33 H11        -4.2690   -2.7188    2.1354 H         1 <0>         0.1277
     34 H12        -5.0608   -1.2403    1.5408 H         1 <0>         0.1310
     35 H13        -4.5203   -0.3473   -0.5659 H         1 <0>         0.1438
     36 H14        -3.3090   -1.1325   -1.6063 H         1 <0>         0.1377
     37 H15        -5.6737   -2.5282   -0.3707 H         1 <0>         0.1371
     38 H16        -4.4208   -3.1640   -1.4635 H         1 <0>         0.1393
     39 H17        -3.2038   -5.5510   -0.7627 H         1 <0>         0.1601
     40 H18        -3.8794   -7.4002    0.9666 H         1 <0>         0.2152
     41 H19        -6.2208   -3.9775    1.8315 H         1 <0>         0.2109
     42 H20         4.1990   -1.3524   -0.0457 H         1 <0>         0.1986
     43 H21        -2.8044   -2.5875    0.2366 H         1 <0>         0.4182
@<TRIPOS>BOND
     1    1    6 ar
     2    1    2 ar
     3    1   24 1
     4    2    3 ar
     5    2   25 1
     6    3   22 1
     7    3    4 ar
     8    4    5 ar
     9    4   20 1
    10    5    6 ar
    11    5   26 1
    12    6    7 1
    13    7    8 1
    14    7   27 1
    15    8   13 1
    16    8    9 1
    17    8   28 1
    18    9   10 1
    19    9   29 1
    20    9   30 1
    21   10   11 1
    22   10   31 1
    23   10   32 1
    24   11   12 1
    25   11   33 1
    26   11   34 1
    27   12   13 1
    28   12   14 1
    29   12   43 1
    30   13   35 1
    31   13   36 1
    32   14   15 1
    33   14   37 1
    34   14   38 1
    35   15   19 2
    36   15   16 1
    37   16   17 2
    38   16   39 1
    39   17   18 1
    40   17   40 1
    41   18   19 1
    42   19   41 1
    43   20   21 2
    44   20   42 1
    45   21   22 1
    46   22   23 1
@<TRIPOS>MOLECULE
CHEMBL225168__1
   43    46     0     0     0
SMALL
USER_CHARGES

@<TRIPOS>ATOM
      1 C1         -0.0169    1.3981    0.0097 C.ar      1 <0>        -0.1239
      2 C2          1.1255    2.1272    0.0027 C.ar      1 <0>        -0.0518
      3 C3          2.3749    1.4697   -0.0127 C.ar      1 <0>         0.0755
      4 C4          2.3982   -0.0010   -0.0209 C.ar      1 <0>        -0.1736
      5 C5          1.1723   -0.7013   -0.0134 C.ar      1 <0>        -0.1246
      6 C6          0.0021   -0.0041    0.0020 C.ar      1 <0>         0.1635
      7 N1         -1.2096   -0.7036    0.0103 N.pl3     1 <0>        -0.7604
      8 C7         -2.4782    0.0290    0.0269 C.3       1 <0>         0.1371
      9 C8         -2.8465    0.3811    1.4710 C.3       1 <0>        -0.1545
     10 C9         -3.0609   -0.9122    2.2626 C.3       1 <0>        -0.1397
     11 C10        -4.1415   -1.7506    1.5765 C.3       1 <0>        -0.0131
     12 N2         -3.7185   -2.0765    0.2092 N.4       1 <0>        -0.3824
     13 C11        -3.5804   -0.8443   -0.5764 C.3       1 <0>        -0.0137
     14 C12        -4.7227   -2.9457   -0.4184 C.3       1 <0>         0.0761
     15 C13        -4.7712   -4.2643    0.3096 C.2       1 <0>        -0.2561
     16 C14        -3.9998   -5.4139    0.0228 C.2       1 <0>        -0.2080
     17 C15        -4.3595   -6.3565    0.9126 C.2       1 <0>        -0.0078
     18 O1         -5.3024   -5.8415    1.7184 O.3       1 <0>        -0.1580
     19 C16        -5.5525   -4.5714    1.3606 C.2       1 <0>         0.0171
     20 C17         3.7299   -0.3711   -0.0356 C.2       1 <0>         0.0698
     21 N3          4.4689    0.7483   -0.0366 N.pl3     1 <0>        -0.4185
     22 N4          3.6337    1.8712   -0.0226 N.2       1 <0>        -0.2889
     23 H1          5.4385    0.7755   -0.0455 H         1 <0>         0.4480
     24 H2         -0.9674    1.9107    0.0262 H         1 <0>         0.1277
     25 H3          1.0805    3.2062    0.0086 H         1 <0>         0.1357
     26 H4          1.1624   -1.7812   -0.0193 H         1 <0>         0.1198
     27 H5         -1.2096   -1.6735    0.0051 H         1 <0>         0.3866
     28 H6         -2.3779    0.9437   -0.5573 H         1 <0>         0.1237
     29 H7         -2.0384    0.9557    1.9235 H         1 <0>         0.0990
     30 H8         -3.7636    0.9702    1.4800 H         1 <0>         0.0893
     31 H9         -2.1291   -1.4768    2.2967 H         1 <0>         0.0878
     32 H10        -3.3776   -0.6698    3.2770 H         1 <0>         0.1112
     33 H11        -4.2967   -2.6721    2.1376 H         1 <0>         0.1271
     34 H12        -5.0728   -1.1853    1.5431 H         1 <0>         0.1308
     35 H13        -4.5237   -0.2983   -0.5639 H         1 <0>         0.1434
     36 H14        -3.3214   -1.0967   -1.6047 H         1 <0>         0.1373
     37 H15        -5.7004   -2.4666   -0.3679 H         1 <0>         0.1371
     38 H16        -4.4550   -3.1161   -1.4612 H         1 <0>         0.1391
     39 H17        -3.2635   -5.5160   -0.7607 H         1 <0>         0.1599
     40 H18        -3.9583   -7.3576    0.9691 H         1 <0>         0.2150
     41 H19        -6.2622   -3.9097    1.8347 H         1 <0>         0.2110
     42 H20         4.1083   -1.3826   -0.0444 H         1 <0>         0.1884
     43 H21        -2.8316   -2.5569    0.2381 H         1 <0>         0.4181
@<TRIPOS>BOND
     1    1    6 ar
     2    1    2 ar
     3    1   24 1
     4    2    3 ar
     5    2   25 1
     6    3    4 ar
     7    3   22 2
     8    4    5 ar
     9    4   20 2
    10    5    6 ar
    11    5   26 1
    12    6    7 1
    13    7    8 1
    14    7   27 1
    15    8   13 1
    16    8    9 1
    17    8   28 1
    18    9   10 1
    19    9   29 1
    20    9   30 1
    21   10   11 1
    22   10   31 1
    23   10   32 1
    24   11   12 1
    25   11   33 1
    26   11   34 1
    27   12   13 1
    28   12   14 1
    29   12   43 1
    30   13   35 1
    31   13   36 1
    32   14   15 1
    33   14   37 1
    34   14   38 1
    35   15   19 2
    36   15   16 1
    37   16   17 2
    38   16   39 1
    39   17   18 1
    40   17   40 1
    41   18   19 1
    42   19   41 1
    43   20   42 1
    44   20   21 1
    45   21   23 1
    46   21   22 1
@<TRIPOS>MOLECULE
CHEMBL225168__2
   43    46     0     0     0
SMALL
USER_CHARGES

@<TRIPOS>ATOM
      1 C1         -0.0168    1.3909    0.0097 C.ar      1 <0>        -0.1317
      2 C2          1.1468    2.1049    0.0024 C.ar      1 <0>        -0.0952
      3 C3          2.3718    1.4432   -0.0129 C.ar      1 <0>         0.0933
      4 C4          2.4029    0.0355   -0.0207 C.ar      1 <0>        -0.1345
      5 C5          1.2032   -0.6850   -0.0131 C.ar      1 <0>        -0.1088
      6 C6          0.0021   -0.0041    0.0020 C.ar      1 <0>         0.1615
      7 N1         -1.2023   -0.7168    0.0097 N.pl3     1 <0>        -0.7454
      8 C7         -2.4787    0.0020    0.0258 C.3       1 <0>         0.1441
      9 C8         -2.8790    0.3654   -1.4070 C.3       1 <0>        -0.1571
     10 C9         -4.2506    1.0463   -1.3862 C.3       1 <0>        -0.1421
     11 C10        -5.2657    0.1160   -0.7188 C.3       1 <0>        -0.0142
     12 N2         -4.8402   -0.1726    0.6561 N.4       1 <0>        -0.3775
     13 C11        -3.5595   -0.8896    0.6409 C.3       1 <0>        -0.0170
     14 C12        -5.8563   -1.0021    1.3176 C.3       1 <0>         0.0779
     15 C13        -7.1357   -0.2172    1.4520 C.2       1 <0>        -0.2560
     16 C14        -7.5056    0.6122    2.5356 C.2       1 <0>        -0.2073
     17 C15        -8.7184    1.1159    2.2445 C.2       1 <0>        -0.0078
     18 O1         -9.1006    0.6382    1.0489 O.3       1 <0>        -0.1579
     19 C16        -8.1425   -0.1668    0.5613 C.2       1 <0>         0.0170
     20 C17         3.8119   -0.3442   -0.0367 C.2       1 <0>         0.0667
     21 N3          4.5194    0.7494   -0.0378 N.2       1 <0>        -0.2347
     22 N4          3.6776    1.8662   -0.0235 N.pl3     1 <0>        -0.5085
     23 H1          3.9697    2.7912   -0.0219 H         1 <0>         0.4422
     24 H2         -0.9627    1.9119    0.0261 H         1 <0>         0.1252
     25 H3          1.1172    3.1844    0.0082 H         1 <0>         0.1301
     26 H4          1.2168   -1.7649   -0.0194 H         1 <0>         0.1303
     27 H5         -1.1919   -1.6867    0.0044 H         1 <0>         0.4053
     28 H6         -2.3768    0.9116    0.6177 H         1 <0>         0.0972
     29 H7         -2.1405    1.0463   -1.8302 H         1 <0>         0.0978
     30 H8         -2.9306   -0.5399   -2.0118 H         1 <0>         0.0860
     31 H9         -4.1860    1.9779   -0.8240 H         1 <0>         0.0885
     32 H10        -4.5674    1.2579   -2.4075 H         1 <0>         0.1155
     33 H11        -6.2434    0.5976   -0.7025 H         1 <0>         0.1298
     34 H12        -5.3297   -0.8151   -1.2819 H         1 <0>         0.1302
     35 H13        -3.6599   -1.7993    0.0489 H         1 <0>         0.1341
     36 H14        -3.2775   -1.1504    1.6610 H         1 <0>         0.1371
     37 H15        -6.0394   -1.8963    0.7219 H         1 <0>         0.1361
     38 H16        -5.5016   -1.2909    2.3070 H         1 <0>         0.1397
     39 H17        -6.9258    0.8041    3.4263 H         1 <0>         0.1603
     40 H18        -9.2883    1.7898    2.8669 H         1 <0>         0.2151
     41 H19        -8.1758   -0.6874   -0.3844 H         1 <0>         0.2109
     42 H20         4.1990   -1.3524   -0.0457 H         1 <0>         0.1993
     43 H21        -4.7338    0.6933    1.1629 H         1 <0>         0.4245
@<TRIPOS>BOND
     1    1    6 ar
     2    1    2 ar
     3    1   24 1
     4    2    3 ar
     5    2   25 1
     6    3   22 1
     7    3    4 ar
     8    4    5 ar
     9    4   20 1
    10    5    6 ar
    11    5   26 1
    12    6    7 1
    13    7    8 1
    14    7   27 1
    15    8   13 1
    16    8    9 1
    17    8   28 1
    18    9   10 1
    19    9   29 1
    20    9   30 1
    21   10   11 1
    22   10   31 1
    23   10   32 1
    24   11   12 1
    25   11   33 1
    26   11   34 1
    27   12   13 1
    28   12   14 1
    29   12   43 1
    30   13   35 1
    31   13   36 1
    32   14   15 1
    33   14   37 1
    34   14   38 1
    35   15   19 2
    36   15   16 1
    37   16   17 2
    38   16   39 1
    39   17   18 1
    40   17   40 1
    41   18   19 1
    42   19   41 1
    43   20   21 2
    44   20   42 1
    45   21   22 1
    46   22   23 1
@<TRIPOS>MOLECULE
CHEMBL225168__3
   43    46     0     0     0
SMALL
USER_CHARGES

@<TRIPOS>ATOM
      1 C1         -0.0169    1.3981    0.0097 C.ar      1 <0>        -0.1254
      2 C2          1.1255    2.1272    0.0027 C.ar      1 <0>        -0.0539
      3 C3          2.3749    1.4697   -0.0127 C.ar      1 <0>         0.0742
      4 C4          2.3982   -0.0010   -0.0209 C.ar      1 <0>        -0.1721
      5 C5          1.1723   -0.7013   -0.0134 C.ar      1 <0>        -0.1227
      6 C6          0.0021   -0.0041    0.0020 C.ar      1 <0>         0.1620
      7 N1         -1.2096   -0.7036    0.0103 N.pl3     1 <0>        -0.7472
      8 C7         -2.4782    0.0290    0.0269 C.3       1 <0>         0.1434
      9 C8         -2.8752    0.3965   -1.4058 C.3       1 <0>        -0.1571
     10 C9         -4.2393    1.0922   -1.3845 C.3       1 <0>        -0.1423
     11 C10        -5.2641    0.1729   -0.7164 C.3       1 <0>        -0.0140
     12 N2         -4.8411   -0.1201    0.6582 N.4       1 <0>        -0.3775
     13 C11        -3.5682   -0.8509    0.6426 C.3       1 <0>        -0.0167
     14 C12        -5.8658   -0.9385    1.3203 C.3       1 <0>         0.0779
     15 C13        -7.1366   -0.1399    1.4552 C.2       1 <0>        -0.2557
     16 C14        -7.4970    0.6936    2.5388 C.2       1 <0>        -0.2072
     17 C15        -8.7045    1.2104    2.2483 C.2       1 <0>        -0.0080
     18 O1         -9.0923    0.7367    1.0529 O.3       1 <0>        -0.1581
     19 C16        -8.1432   -0.0787    0.5649 C.2       1 <0>         0.0168
     20 C17         3.7299   -0.3711   -0.0356 C.2       1 <0>         0.0704
     21 N3          4.4689    0.7483   -0.0366 N.pl3     1 <0>        -0.4187
     22 N4          3.6337    1.8712   -0.0226 N.2       1 <0>        -0.2906
     23 H1          5.4385    0.7755   -0.0455 H         1 <0>         0.4479
     24 H2         -0.9674    1.9107    0.0262 H         1 <0>         0.1236
     25 H3          1.0805    3.2062    0.0086 H         1 <0>         0.1343
     26 H4          1.1624   -1.7812   -0.0193 H         1 <0>         0.1232
     27 H5         -1.2096   -1.6735    0.0051 H         1 <0>         0.4039
     28 H6         -2.3662    0.9374    0.6187 H         1 <0>         0.0975
     29 H7         -2.1295    1.0693   -1.8294 H         1 <0>         0.0982
     30 H8         -2.9368   -0.5083   -2.0104 H         1 <0>         0.0853
     31 H9         -4.1644    2.0231   -0.8224 H         1 <0>         0.0888
     32 H10        -4.5542    1.3071   -2.4056 H         1 <0>         0.1152
     33 H11        -6.2365    0.6651   -0.6998 H         1 <0>         0.1294
     34 H12        -5.3384   -0.7575   -1.2794 H         1 <0>         0.1298
     35 H13        -3.6787   -1.7594    0.0507 H         1 <0>         0.1334
     36 H14        -3.2887   -1.1146    1.6626 H         1 <0>         0.1367
     37 H15        -6.0588   -1.8308    0.7248 H         1 <0>         0.1358
     38 H16        -5.5138   -1.2310    2.3096 H         1 <0>         0.1395
     39 H17        -6.9148    0.8793    3.4293 H         1 <0>         0.1603
     40 H18        -9.2668    1.8905    2.8709 H         1 <0>         0.2151
     41 H19        -8.1825   -0.5989   -0.3807 H         1 <0>         0.2108
     42 H20         4.1083   -1.3826   -0.0444 H         1 <0>         0.1893
     43 H21        -4.7251    0.7447    1.1649 H         1 <0>         0.4247
@<TRIPOS>BOND
     1    1    6 ar
     2    1    2 ar
     3    1   24 1
     4    2    3 ar
     5    2   25 1
     6    3    4 ar
     7    3   22 2
     8    4    5 ar
     9    4   20 2
    10    5    6 ar
    11    5   26 1
    12    6    7 1
    13    7    8 1
    14    7   27 1
    15    8   13 1
    16    8    9 1
    17    8   28 1
    18    9   10 1
    19    9   29 1
    20    9   30 1
    21   10   11 1
    22   10   31 1
    23   10   32 1
    24   11   12 1
    25   11   33 1
    26   11   34 1
    27   12   13 1
    28   12   14 1
    29   12   43 1
    30   13   35 1
    31   13   36 1
    32   14   15 1
    33   14   37 1
    34   14   38 1
    35   15   19 2
    36   15   16 1
    37   16   17 2
    38   16   39 1
    39   17   18 1
    40   17   40 1
    41   18   19 1
    42   19   41 1
    43   20   42 1
    44   20   21 1
    45   21   23 1
    46   21   22 1
@<TRIPOS>MOLECULE
CHEMBL591986
   49    52     0     0     0
SMALL
USER_CHARGES

@<TRIPOS>ATOM
      1 C1          0.1967    1.1982   -0.0335 C.ar      1 <0>        -0.1632
      2 C2          1.4442    1.7870   -0.0591 C.ar      1 <0>         0.1110
      3 N1          2.5395    1.0520   -0.0842 N.ar      1 <0>        -0.4797
      4 C3          2.4972   -0.2666   -0.0855 C.ar      1 <0>         0.1021
      5 C4          1.2914   -0.9365   -0.0609 C.ar      1 <0>        -0.1487
      6 C5          0.1051   -0.1970   -0.0339 C.ar      1 <0>         0.0124
      7 C6         -1.2139   -0.8737   -0.0064 C.ar      1 <0>         0.0490
      8 C7         -2.3814   -0.1233   -0.0904 C.ar      1 <0>         0.1423
      9 N2         -3.5600   -0.7232   -0.0662 N.ar      1 <0>        -0.4935
     10 C8         -3.6321   -2.0418    0.0382 C.ar      1 <0>         0.3944
     11 C9         -2.4561   -2.8029    0.1233 C.ar      1 <0>         0.2443
     12 N3         -1.2791   -2.2011    0.0934 N.ar      1 <0>        -0.4048
     13 N4         -2.5285   -4.1884    0.2331 N.pl3     1 <0>        -0.6437
     14 C10        -2.3952   -5.0073   -0.9887 C.3       1 <0>         0.1244
     15 C11        -1.5210   -6.2480   -0.7310 C.3       1 <0>        -0.1590
     16 C12        -0.3576   -5.8682    0.1581 C.3       1 <0>        -0.0075
     17 N5         -0.7121   -6.1251    1.5522 N.4       1 <0>        -0.4827
     18 C13        -1.3640   -5.0570    2.2075 C.3       1 <0>        -0.0557
     19 C14        -2.7258   -4.7757    1.5423 C.3       1 <0>         0.1247
     20 N6         -4.8715   -2.6710    0.0640 N.pl3     1 <0>        -0.5911
     21 C15        -5.0949   -4.1241    0.0664 C.3       1 <0>         0.1106
     22 C16        -6.6210   -4.3531    0.0728 C.3       1 <0>        -0.1402
     23 C17        -7.1747   -3.0206   -0.4976 C.3       1 <0>        -0.1355
     24 C18        -6.1794   -1.9916    0.0999 C.3       1 <0>         0.1085
     25 H1         -0.6957    1.8059   -0.0089 H         1 <0>         0.1404
     26 H2          1.5251    2.8639   -0.0590 H         1 <0>         0.1638
     27 H3          3.4189   -0.8291   -0.1065 H         1 <0>         0.1579
     28 H4          1.2642   -2.0162   -0.0629 H         1 <0>         0.1350
     29 H5         -2.3258    0.9519   -0.1753 H         1 <0>         0.1773
     30 H6         -3.3849   -5.3283   -1.3138 H         1 <0>         0.0790
     31 H7         -1.9393   -4.4054   -1.7747 H         1 <0>         0.0860
     32 H8         -2.1173   -7.0173   -0.2404 H         1 <0>         0.0882
     33 H9         -1.1438   -6.6302   -1.6796 H         1 <0>         0.1202
     34 H10         0.5154   -6.4628   -0.1109 H         1 <0>         0.1339
     35 H11        -0.1315   -4.8097    0.0293 H         1 <0>         0.1404
     36 H12        -1.3152   -6.9335    1.5835 H         1 <0>         0.4196
     37 H13        -1.5191   -5.3166    3.2547 H         1 <0>         0.1395
     38 H14        -0.7426   -4.1635    2.1477 H         1 <0>         0.1321
     39 H15        -3.2937   -4.0861    2.1669 H         1 <0>         0.1073
     40 H16        -3.2783   -5.7098    1.4408 H         1 <0>         0.0980
     41 H17        -4.6571   -4.5679   -0.8277 H         1 <0>         0.0732
     42 H18        -4.6500   -4.5661    0.9580 H         1 <0>         0.0706
     43 H19        -6.8882   -5.1895   -0.5730 H         1 <0>         0.0866
     44 H20        -6.9821   -4.5176    1.0880 H         1 <0>         0.0795
     45 H21        -7.1386   -3.0170   -1.5870 H         1 <0>         0.0789
     46 H22        -8.1877   -2.8340   -0.1412 H         1 <0>         0.0910
     47 H23        -6.4524   -1.7483    1.1267 H         1 <0>         0.0710
     48 H24        -6.1550   -1.0892   -0.5110 H         1 <0>         0.0852
     49 H25         0.1320   -6.3427    2.0604 H         1 <0>         0.4274
@<TRIPOS>BOND
     1    1    6 ar
     2    1    2 ar
     3    1   25 1
     4    2    3 ar
     5    2   26 1
     6    3    4 ar
     7    4    5 ar
     8    4   27 1
     9    5    6 ar
    10    5   28 1
    11    6    7 1
    12    7   12 ar
    13    7    8 ar
    14    8    9 ar
    15    8   29 1
    16    9   10 ar
    17   10   11 ar
    18   10   20 1
    19   11   12 ar
    20   11   13 1
    21   13   19 1
    22   13   14 1
    23   14   15 1
    24   14   30 1
    25   14   31 1
    26   15   16 1
    27   15   32 1
    28   15   33 1
    29   16   17 1
    30   16   34 1
    31   16   35 1
    32   17   18 1
    33   17   36 1
    34   17   49 1
    35   18   19 1
    36   18   37 1
    37   18   38 1
    38   19   39 1
    39   19   40 1
    40   20   24 1
    41   20   21 1
    42   21   22 1
    43   21   41 1
    44   21   42 1
    45   22   23 1
    46   22   43 1
    47   22   44 1
    48   23   24 1
    49   23   45 1
    50   23   46 1
    51   24   47 1
    52   24   48 1
@<TRIPOS>MOLECULE
CHEMBL224594
   48    51     0     0     0
SMALL
USER_CHARGES

@<TRIPOS>ATOM
      1 C1         -0.0167    1.3779    0.0096 C.ar      1 <0>        -0.1060
      2 C2          1.1711    2.0854    0.0021 C.ar      1 <0>        -0.0497
      3 C3          2.3773    1.4107   -0.0130 C.ar      1 <0>        -0.1588
      4 C4          2.3961    0.0283   -0.0201 C.ar      1 <0>        -0.0343
      5 C5          1.2086   -0.6790   -0.0117 C.ar      1 <0>        -0.0408
      6 C6          0.0021   -0.0041    0.0020 C.ar      1 <0>        -0.0233
      7 N1          1.2287   -2.1590   -0.0202 N.pl3     1 <0>         0.0225
      8 O1          2.2838   -2.7492   -0.0346 O.2       1 <0>        -0.1434
      9 O2          0.1900   -2.7777   -0.0128 O.3       1 <0>        -0.1324
     10 C7          3.6720    2.1819   -0.0222 C.3       1 <0>         0.0446
     11 N2          4.1064    2.4260    1.3597 N.4       1 <0>        -0.3850
     12 C8          3.1321    3.2946    2.0311 C.3       1 <0>        -0.0162
     13 C9          3.5370    3.4863    3.4942 C.3       1 <0>        -0.1404
     14 C10         4.9246    4.1315    3.5537 C.3       1 <0>        -0.1547
     15 C11         5.9181    3.2540    2.7867 C.3       1 <0>         0.1380
     16 C12         5.4249    3.0710    1.3498 C.3       1 <0>        -0.0142
     17 N3          6.0208    1.9463    3.4390 N.pl3     1 <0>        -0.7595
     18 C13         6.8993    1.7675    4.5137 C.ar      1 <0>         0.1584
     19 C14         7.6716    2.8387    4.9648 C.ar      1 <0>        -0.1268
     20 C15         8.5346    2.6851    6.0110 C.ar      1 <0>        -0.0939
     21 C16         8.6535    1.4494    6.6426 C.ar      1 <0>         0.0965
     22 C17         7.8790    0.3621    6.1962 C.ar      1 <0>        -0.1366
     23 C18         6.9933    0.5338    5.1259 C.ar      1 <0>        -0.1092
     24 C19         8.2288   -0.7692    7.0492 C.2       1 <0>         0.0661
     25 N4          9.1226   -0.3619    7.9046 N.2       1 <0>        -0.2334
     26 N5          9.4111    0.9898    7.6908 N.pl3     1 <0>        -0.5070
     27 H1         10.0452    1.5176    8.2010 H         1 <0>         0.4430
     28 H2         -0.9591    1.9051    0.0259 H         1 <0>         0.1628
     29 H3          1.1565    3.1653    0.0076 H         1 <0>         0.1529
     30 H4          3.3385   -0.4989   -0.0326 H         1 <0>         0.1619
     31 H5         -0.9258   -0.5567    0.0082 H         1 <0>         0.1674
     32 H6          4.4344    1.6056   -0.5463 H         1 <0>         0.1459
     33 H7          3.5237    3.1349   -0.5302 H         1 <0>         0.1480
     34 H8          3.1051    4.2633    1.5321 H         1 <0>         0.1346
     35 H9          2.1445    2.8356    1.9850 H         1 <0>         0.1277
     36 H10         2.8134    4.1329    3.9904 H         1 <0>         0.1132
     37 H11         3.5640    2.5181    3.9942 H         1 <0>         0.0884
     38 H12         4.8861    5.1214    3.0991 H         1 <0>         0.0906
     39 H13         5.2419    4.2184    4.5929 H         1 <0>         0.0999
     40 H14         6.8964    3.7347    2.7773 H         1 <0>         0.1249
     41 H15         6.1300    2.4469    0.8009 H         1 <0>         0.1401
     42 H16         5.3491    4.0444    0.8654 H         1 <0>         0.1462
     43 H17         5.4800    1.2044    3.1261 H         1 <0>         0.3871
     44 H18         7.5857    3.8001    4.4804 H         1 <0>         0.1291
     45 H19         9.1264    3.5227    6.3493 H         1 <0>         0.1318
     46 H20         6.3917   -0.2933    4.7790 H         1 <0>         0.1272
     47 H21         7.8192   -1.7664    6.9832 H         1 <0>         0.1990
     48 H22         4.1665    1.5476    1.8524 H         1 <0>         0.4179
@<TRIPOS>BOND
     1    1    6 ar
     2    1    2 ar
     3    1   28 1
     4    2    3 ar
     5    2   29 1
     6    3    4 ar
     7    3   10 1
     8    4    5 ar
     9    4   30 1
    10    5    6 ar
    11    5    7 1
    12    6   31 1
    13    7    8 2
    14    7    9 1
    15   10   11 1
    16   10   32 1
    17   10   33 1
    18   11   16 1
    19   11   12 1
    20   11   48 1
    21   12   13 1
    22   12   34 1
    23   12   35 1
    24   13   14 1
    25   13   36 1
    26   13   37 1
    27   14   15 1
    28   14   38 1
    29   14   39 1
    30   15   16 1
    31   15   17 1
    32   15   40 1
    33   16   41 1
    34   16   42 1
    35   17   18 1
    36   17   43 1
    37   18   23 ar
    38   18   19 ar
    39   19   20 ar
    40   19   44 1
    41   20   21 ar
    42   20   45 1
    43   21   26 1
    44   21   22 ar
    45   22   23 ar
    46   22   24 1
    47   23   46 1
    48   24   25 2
    49   24   47 1
    50   25   26 1
    51   26   27 1
@<TRIPOS>MOLECULE
CHEMBL224594__1
   48    51     0     0     0
SMALL
USER_CHARGES

@<TRIPOS>ATOM
      1 C1         -0.0167    1.3779    0.0096 C.ar      1 <0>        -0.1061
      2 C2          1.1711    2.0854    0.0021 C.ar      1 <0>        -0.0495
      3 C3          2.3773    1.4107   -0.0130 C.ar      1 <0>        -0.1583
      4 C4          2.3961    0.0283   -0.0201 C.ar      1 <0>        -0.0343
      5 C5          1.2086   -0.6790   -0.0117 C.ar      1 <0>        -0.0410
      6 C6          0.0021   -0.0041    0.0020 C.ar      1 <0>        -0.0235
      7 N1          1.2287   -2.1590   -0.0202 N.pl3     1 <0>         0.0227
      8 O1          2.2838   -2.7492   -0.0346 O.2       1 <0>        -0.1439
      9 O2          0.1900   -2.7777   -0.0128 O.3       1 <0>        -0.1327
     10 C7          3.6720    2.1819   -0.0222 C.3       1 <0>         0.0445
     11 N2          4.1064    2.4260    1.3597 N.4       1 <0>        -0.3848
     12 C8          3.1321    3.2946    2.0311 C.3       1 <0>        -0.0160
     13 C9          3.5370    3.4863    3.4942 C.3       1 <0>        -0.1402
     14 C10         4.9246    4.1315    3.5537 C.3       1 <0>        -0.1548
     15 C11         5.9181    3.2540    2.7867 C.3       1 <0>         0.1372
     16 C12         5.4249    3.0710    1.3498 C.3       1 <0>        -0.0142
     17 N3          6.0208    1.9463    3.4390 N.pl3     1 <0>        -0.7611
     18 C13         6.8990    1.7675    4.5134 C.ar      1 <0>         0.1613
     19 C14         7.6689    2.8528    4.9561 C.ar      1 <0>        -0.1240
     20 C15         8.5352    2.7375    5.9920 C.ar      1 <0>        -0.0516
     21 C16         8.6758    1.4973    6.6517 C.ar      1 <0>         0.0758
     22 C17         7.8696    0.3570    6.1898 C.ar      1 <0>        -0.1745
     23 C18         6.9818    0.5448    5.1082 C.ar      1 <0>        -0.1221
     24 C19         8.2028   -0.7118    7.0005 C.2       1 <0>         0.0714
     25 N4          9.1225   -0.2901    7.8813 N.pl3     1 <0>        -0.4179
     26 N5          9.4074    1.0625    7.6625 N.2       1 <0>        -0.2887
     27 H1          9.5294   -0.8409    8.5682 H         1 <0>         0.4483
     28 H2         -0.9591    1.9051    0.0259 H         1 <0>         0.1628
     29 H3          1.1565    3.1653    0.0076 H         1 <0>         0.1531
     30 H4          3.3385   -0.4989   -0.0326 H         1 <0>         0.1618
     31 H5         -0.9258   -0.5567    0.0082 H         1 <0>         0.1673
     32 H6          4.4344    1.6056   -0.5463 H         1 <0>         0.1457
     33 H7          3.5237    3.1349   -0.5302 H         1 <0>         0.1479
     34 H8          3.1051    4.2633    1.5321 H         1 <0>         0.1344
     35 H9          2.1445    2.8356    1.9850 H         1 <0>         0.1271
     36 H10         2.8134    4.1329    3.9904 H         1 <0>         0.1128
     37 H11         3.5640    2.5181    3.9942 H         1 <0>         0.0883
     38 H12         4.8861    5.1214    3.0991 H         1 <0>         0.0901
     39 H13         5.2419    4.2184    4.5929 H         1 <0>         0.1004
     40 H14         6.8964    3.7347    2.7773 H         1 <0>         0.1254
     41 H15         6.1300    2.4469    0.8009 H         1 <0>         0.1397
     42 H16         5.3491    4.0444    0.8654 H         1 <0>         0.1457
     43 H17         5.4800    1.2044    3.1261 H         1 <0>         0.3857
     44 H18         7.5691    3.8059    4.4580 H         1 <0>         0.1274
     45 H19         9.1156    3.5906    6.3112 H         1 <0>         0.1358
     46 H20         6.3759   -0.2755    4.7527 H         1 <0>         0.1200
     47 H21         7.7946   -1.7096    6.9366 H         1 <0>         0.1889
     48 H22         4.1665    1.5476    1.8524 H         1 <0>         0.4178
@<TRIPOS>BOND
     1    1    6 ar
     2    1    2 ar
     3    1   28 1
     4    2    3 ar
     5    2   29 1
     6    3    4 ar
     7    3   10 1
     8    4    5 ar
     9    4   30 1
    10    5    6 ar
    11    5    7 1
    12    6   31 1
    13    7    8 2
    14    7    9 1
    15   10   11 1
    16   10   32 1
    17   10   33 1
    18   11   16 1
    19   11   12 1
    20   11   48 1
    21   12   13 1
    22   12   34 1
    23   12   35 1
    24   13   14 1
    25   13   36 1
    26   13   37 1
    27   14   15 1
    28   14   38 1
    29   14   39 1
    30   15   16 1
    31   15   17 1
    32   15   40 1
    33   16   41 1
    34   16   42 1
    35   17   18 1
    36   17   43 1
    37   18   23 ar
    38   18   19 ar
    39   19   20 ar
    40   19   44 1
    41   20   21 ar
    42   20   45 1
    43   21   22 ar
    44   21   26 2
    45   22   23 ar
    46   22   24 2
    47   23   46 1
    48   24   47 1
    49   24   25 1
    50   25   27 1
    51   25   26 1
@<TRIPOS>MOLECULE
CHEMBL224594__2
   48    51     0     0     0
SMALL
USER_CHARGES

@<TRIPOS>ATOM
      1 C1         -0.0167    1.3779    0.0096 C.ar      1 <0>        -0.1061
      2 C2          1.1711    2.0854    0.0021 C.ar      1 <0>        -0.0499
      3 C3          2.3773    1.4107   -0.0130 C.ar      1 <0>        -0.1583
      4 C4          2.3961    0.0283   -0.0201 C.ar      1 <0>        -0.0334
      5 C5          1.2086   -0.6790   -0.0117 C.ar      1 <0>        -0.0411
      6 C6          0.0021   -0.0041    0.0020 C.ar      1 <0>        -0.0231
      7 N1          1.2287   -2.1590   -0.0202 N.pl3     1 <0>         0.0223
      8 O1          2.2838   -2.7492   -0.0346 O.2       1 <0>        -0.1437
      9 O2          0.1900   -2.7777   -0.0128 O.3       1 <0>        -0.1324
     10 C7          3.6720    2.1819   -0.0222 C.3       1 <0>         0.0462
     11 N2          4.1064    2.4260    1.3597 N.4       1 <0>        -0.3797
     12 C8          3.1321    3.2946    2.0311 C.3       1 <0>        -0.0171
     13 C9          3.5370    3.4863    3.4942 C.3       1 <0>        -0.1426
     14 C10         4.9246    4.1315    3.5537 C.3       1 <0>        -0.1575
     15 C11         5.9181    3.2540    2.7867 C.3       1 <0>         0.1440
     16 C12         5.4249    3.0710    1.3498 C.3       1 <0>        -0.0178
     17 N3          7.2329    3.9000    2.7741 N.pl3     1 <0>        -0.7451
     18 C13         8.1110    3.7207    3.8489 C.ar      1 <0>         0.1603
     19 C14         7.7329    2.9211    4.9284 C.ar      1 <0>        -0.1317
     20 C15         8.5744    2.7338    5.9866 C.ar      1 <0>        -0.0948
     21 C16         9.8269    3.3429    5.9992 C.ar      1 <0>         0.0940
     22 C17        10.2189    4.1511    4.9154 C.ar      1 <0>        -0.1346
     23 C18         9.3492    4.3309    3.8335 C.ar      1 <0>        -0.1079
     24 C19        11.5603    4.6341    5.2271 C.2       1 <0>         0.0668
     25 N4         11.9011    4.1444    6.3849 N.2       1 <0>        -0.2342
     26 N5         10.8691    3.3485    6.8925 N.pl3     1 <0>        -0.5081
     27 H1         10.8868    2.8767    7.7398 H         1 <0>         0.4424
     28 H2         -0.9591    1.9051    0.0259 H         1 <0>         0.1628
     29 H3          1.1565    3.1653    0.0076 H         1 <0>         0.1529
     30 H4          3.3385   -0.4989   -0.0326 H         1 <0>         0.1623
     31 H5         -0.9258   -0.5567    0.0082 H         1 <0>         0.1673
     32 H6          4.4344    1.6056   -0.5463 H         1 <0>         0.1463
     33 H7          3.5237    3.1349   -0.5302 H         1 <0>         0.1469
     34 H8          3.1051    4.2633    1.5321 H         1 <0>         0.1338
     35 H9          2.1445    2.8356    1.9850 H         1 <0>         0.1298
     36 H10         2.8134    4.1329    3.9904 H         1 <0>         0.1173
     37 H11         3.5640    2.5181    3.9942 H         1 <0>         0.0890
     38 H12         4.8861    5.1214    3.0991 H         1 <0>         0.0870
     39 H13         5.2419    4.2184    4.5929 H         1 <0>         0.0991
     40 H14         5.9945    2.2811    3.2721 H         1 <0>         0.0979
     41 H15         6.1300    2.4469    0.8009 H         1 <0>         0.1395
     42 H16         5.3491    4.0444    0.8654 H         1 <0>         0.1366
     43 H17         7.4949    4.4520    2.0207 H         1 <0>         0.4055
     44 H18         6.7633    2.4455    4.9267 H         1 <0>         0.1247
     45 H19         8.2685    2.1127    6.8154 H         1 <0>         0.1303
     46 H20         9.6427    4.9456    2.9954 H         1 <0>         0.1304
     47 H21        12.1631    5.2819    4.6079 H         1 <0>         0.1995
     48 H22         4.1665    1.5476    1.8524 H         1 <0>         0.4244
@<TRIPOS>BOND
     1    1    6 ar
     2    1    2 ar
     3    1   28 1
     4    2    3 ar
     5    2   29 1
     6    3    4 ar
     7    3   10 1
     8    4    5 ar
     9    4   30 1
    10    5    6 ar
    11    5    7 1
    12    6   31 1
    13    7    8 2
    14    7    9 1
    15   10   11 1
    16   10   32 1
    17   10   33 1
    18   11   16 1
    19   11   12 1
    20   11   48 1
    21   12   13 1
    22   12   34 1
    23   12   35 1
    24   13   14 1
    25   13   36 1
    26   13   37 1
    27   14   15 1
    28   14   38 1
    29   14   39 1
    30   15   16 1
    31   15   17 1
    32   15   40 1
    33   16   41 1
    34   16   42 1
    35   17   18 1
    36   17   43 1
    37   18   23 ar
    38   18   19 ar
    39   19   20 ar
    40   19   44 1
    41   20   21 ar
    42   20   45 1
    43   21   26 1
    44   21   22 ar
    45   22   23 ar
    46   22   24 1
    47   23   46 1
    48   24   25 2
    49   24   47 1
    50   25   26 1
    51   26   27 1
@<TRIPOS>MOLECULE
CHEMBL224594__3
   48    51     0     0     0
SMALL
USER_CHARGES

@<TRIPOS>ATOM
      1 C1         -0.0167    1.3779    0.0096 C.ar      1 <0>        -0.1062
      2 C2          1.1711    2.0854    0.0021 C.ar      1 <0>        -0.0499
      3 C3          2.3773    1.4107   -0.0130 C.ar      1 <0>        -0.1581
      4 C4          2.3961    0.0283   -0.0201 C.ar      1 <0>        -0.0333
      5 C5          1.2086   -0.6790   -0.0117 C.ar      1 <0>        -0.0411
      6 C6          0.0021   -0.0041    0.0020 C.ar      1 <0>        -0.0233
      7 N1          1.2287   -2.1590   -0.0202 N.pl3     1 <0>         0.0224
      8 O1          2.2838   -2.7492   -0.0346 O.2       1 <0>        -0.1435
      9 O2          0.1900   -2.7777   -0.0128 O.3       1 <0>        -0.1327
     10 C7          3.6720    2.1819   -0.0222 C.3       1 <0>         0.0463
     11 N2          4.1064    2.4260    1.3597 N.4       1 <0>        -0.3797
     12 C8          3.1321    3.2946    2.0311 C.3       1 <0>        -0.0169
     13 C9          3.5370    3.4863    3.4942 C.3       1 <0>        -0.1429
     14 C10         4.9246    4.1315    3.5537 C.3       1 <0>        -0.1575
     15 C11         5.9181    3.2540    2.7867 C.3       1 <0>         0.1432
     16 C12         5.4249    3.0710    1.3498 C.3       1 <0>        -0.0175
     17 N3          7.2329    3.9000    2.7741 N.pl3     1 <0>        -0.7470
     18 C13         8.1108    3.7207    3.8486 C.ar      1 <0>         0.1608
     19 C14         7.7176    2.9146    4.9266 C.ar      1 <0>        -0.1260
     20 C15         8.5269    2.7054    5.9935 C.ar      1 <0>        -0.0532
     21 C16         9.8024    3.3093    6.0330 C.ar      1 <0>         0.0744
     22 C17        10.2179    4.1554    4.9038 C.ar      1 <0>        -0.1726
     23 C18         9.3295    4.3288    3.8203 C.ar      1 <0>        -0.1211
     24 C19        11.4886    4.6098    5.2022 C.2       1 <0>         0.0712
     25 N4         11.8382    4.1037    6.3942 N.pl3     1 <0>        -0.4183
     26 N5         10.8019    3.3088    6.8972 N.2       1 <0>        -0.2901
     27 H1         12.6839    4.2645    6.8411 H         1 <0>         0.4481
     28 H2         -0.9591    1.9051    0.0259 H         1 <0>         0.1626
     29 H3          1.1565    3.1653    0.0076 H         1 <0>         0.1528
     30 H4          3.3385   -0.4989   -0.0326 H         1 <0>         0.1623
     31 H5         -0.9258   -0.5567    0.0082 H         1 <0>         0.1672
     32 H6          4.4344    1.6056   -0.5463 H         1 <0>         0.1461
     33 H7          3.5237    3.1349   -0.5302 H         1 <0>         0.1465
     34 H8          3.1051    4.2633    1.5321 H         1 <0>         0.1334
     35 H9          2.1445    2.8356    1.9850 H         1 <0>         0.1294
     36 H10         2.8134    4.1329    3.9904 H         1 <0>         0.1169
     37 H11         3.5640    2.5181    3.9942 H         1 <0>         0.0892
     38 H12         4.8861    5.1214    3.0991 H         1 <0>         0.0863
     39 H13         5.2419    4.2184    4.5929 H         1 <0>         0.0995
     40 H14         5.9945    2.2811    3.2721 H         1 <0>         0.0981
     41 H15         6.1300    2.4469    0.8009 H         1 <0>         0.1391
     42 H16         5.3491    4.0444    0.8654 H         1 <0>         0.1359
     43 H17         7.4949    4.4520    2.0207 H         1 <0>         0.4041
     44 H18         6.7436    2.4483    4.9063 H         1 <0>         0.1231
     45 H19         8.1973    2.0798    6.8098 H         1 <0>         0.1345
     46 H20         9.6123    4.9419    2.9773 H         1 <0>         0.1233
     47 H21        12.0934    5.2573    4.5846 H         1 <0>         0.1894
     48 H22         4.1665    1.5476    1.8524 H         1 <0>         0.4245
@<TRIPOS>BOND
     1    1    6 ar
     2    1    2 ar
     3    1   28 1
     4    2    3 ar
     5    2   29 1
     6    3    4 ar
     7    3   10 1
     8    4    5 ar
     9    4   30 1
    10    5    6 ar
    11    5    7 1
    12    6   31 1
    13    7    8 2
    14    7    9 1
    15   10   11 1
    16   10   32 1
    17   10   33 1
    18   11   16 1
    19   11   12 1
    20   11   48 1
    21   12   13 1
    22   12   34 1
    23   12   35 1
    24   13   14 1
    25   13   36 1
    26   13   37 1
    27   14   15 1
    28   14   38 1
    29   14   39 1
    30   15   16 1
    31   15   17 1
    32   15   40 1
    33   16   41 1
    34   16   42 1
    35   17   18 1
    36   17   43 1
    37   18   23 ar
    38   18   19 ar
    39   19   20 ar
    40   19   44 1
    41   20   21 ar
    42   20   45 1
    43   21   22 ar
    44   21   26 2
    45   22   23 ar
    46   22   24 2
    47   23   46 1
    48   24   47 1
    49   24   25 1
    50   25   27 1
    51   25   26 1
@<TRIPOS>MOLECULE
CHEMBL570820
   48    51     0     0     0
SMALL
USER_CHARGES

@<TRIPOS>ATOM
      1 C1         -3.2876    0.7882    1.0503 C.3       1 <0>        -0.0776
      2 C2         -2.6879   -0.5775    0.8350 C.2       1 <0>        -0.1350
      3 C3         -3.2537   -1.6068    0.1838 C.2       1 <0>         0.0517
      4 N1         -2.4066   -2.6848    0.1935 N.pl3     1 <0>        -0.5714
      5 H1         -2.5956   -3.5443   -0.2144 H         1 <0>         0.4243
      6 C4         -1.2558   -2.3700    0.8623 C.ar      1 <0>         0.3229
      7 C5         -1.3759   -1.0345    1.2893 C.ar      1 <0>        -0.2039
      8 C6         -0.3145   -0.4581    2.0033 C.ar      1 <0>         0.4783
      9 N2          0.7623   -1.2010    2.2422 N.ar      1 <0>        -0.5500
     10 C7          0.8350   -2.4504    1.8198 C.ar      1 <0>         0.3283
     11 N3         -0.1386   -3.0339    1.1548 N.ar      1 <0>        -0.5352
     12 N4         -0.3862    0.8500    2.4471 N.pl3     1 <0>        -0.6566
     13 C8         -0.0165    1.9621    1.5602 C.3       1 <0>         0.1361
     14 C9          1.0613    2.8045    2.2537 C.3       1 <0>         0.0931
     15 N5          0.6136    3.1072    3.6203 N.am      1 <0>        -0.6152
     16 C10         0.2439    1.9952    4.5072 C.3       1 <0>         0.1467
     17 H2          1.1202    1.3777    4.7044 H         1 <0>         0.0814
     18 C11        -0.8393    1.1531    3.8119 C.3       1 <0>         0.1399
     19 C12        -0.3012    2.5489    5.8252 C.3       1 <0>        -0.1382
     20 C13         0.5438    4.3818    4.0527 C.2       1 <0>         0.7084
     21 O1          0.2835    4.6153    5.2172 O.2       1 <0>        -0.5592
     22 N6          0.7625    5.3976    3.1943 N.am      1 <0>        -0.6871
     23 C14         0.8381    6.7127    3.6702 C.ar      1 <0>         0.1679
     24 C15         1.3707    6.9676    4.9271 C.ar      1 <0>        -0.0767
     25 C16         1.4446    8.2649    5.3950 C.ar      1 <0>        -0.1238
     26 C17         0.9876    9.3116    4.6121 C.ar      1 <0>         0.1089
     27 C18         0.4559    9.0598    3.3579 C.ar      1 <0>        -0.1103
     28 C19         0.3860    7.7633    2.8837 C.ar      1 <0>        -0.0961
     29 Br1        -0.1680   10.4912    2.2911 Br        1 <0>        -0.0233
     30 F1          1.0600   10.5798    5.0721 F         1 <0>        -0.1238
     31 H3         -2.9391    1.4651    0.2702 H         1 <0>         0.0646
     32 H4         -4.3746    0.7179    1.0114 H         1 <0>         0.0648
     33 H5         -2.9827    1.1694    2.0249 H         1 <0>         0.0684
     34 H6         -4.2297   -1.5882   -0.2781 H         1 <0>         0.1824
     35 H7          1.7278   -3.0186    2.0353 H         1 <0>         0.2006
     36 H8          0.3747    1.5676    0.6224 H         1 <0>         0.0827
     37 H9         -0.8928    2.5796    1.3630 H         1 <0>         0.0664
     38 H10         1.9958    2.2446    2.2904 H         1 <0>         0.0826
     39 H11         1.2100    3.7334    1.7032 H         1 <0>         0.0827
     40 H12        -1.7728    1.7143    3.7713 H         1 <0>         0.0665
     41 H13        -0.9916    0.2242    4.3615 H         1 <0>         0.0820
     42 H14        -1.1059    3.2543    5.6178 H         1 <0>         0.0702
     43 H15        -0.6842    1.7292    6.4330 H         1 <0>         0.0480
     44 H16         0.4983    3.0578    6.3638 H         1 <0>         0.0808
     45 H17         0.8675    5.2178    2.2469 H         1 <0>         0.4069
     46 H18         1.7267    6.1516    5.5386 H         1 <0>         0.1522
     47 H19         1.8588    8.4631    6.3725 H         1 <0>         0.1494
     48 H20        -0.0241    7.5675    1.9040 H         1 <0>         0.1445
@<TRIPOS>BOND
     1    1    2 1
     2    1   31 1
     3    1   32 1
     4    1   33 1
     5    2    7 1
     6    2    3 2
     7    3    4 1
     8    3   34 1
     9    4    5 1
    10    4    6 1
    11    6   11 ar
    12    6    7 ar
    13    7    8 ar
    14    8    9 ar
    15    8   12 1
    16    9   10 ar
    17   10   11 ar
    18   10   35 1
    19   12   18 1
    20   12   13 1
    21   13   14 1
    22   13   36 1
    23   13   37 1
    24   14   15 1
    25   14   38 1
    26   14   39 1
    27   15   16 1
    28   15   20 am
    29   16   17 1
    30   16   18 1
    31   16   19 1
    32   18   40 1
    33   18   41 1
    34   19   42 1
    35   19   43 1
    36   19   44 1
    37   20   21 2
    38   20   22 am
    39   22   23 1
    40   22   45 1
    41   23   28 ar
    42   23   24 ar
    43   24   25 ar
    44   24   46 1
    45   25   26 ar
    46   25   47 1
    47   26   27 ar
    48   26   30 1
    49   27   28 ar
    50   27   29 1
    51   28   48 1
@<TRIPOS>MOLECULE
CHEMBL1079293
   29    32     0     0     0
SMALL
USER_CHARGES

@<TRIPOS>ATOM
      1 C1          0.0052    1.3502    0.3676 C.ar      1 <0>        -0.1235
      2 C2          1.1659    2.0806    0.1520 C.ar      1 <0>        -0.0885
      3 C3          2.3670    1.4381   -0.0601 C.ar      1 <0>        -0.1100
      4 C4          2.4151    0.0505   -0.0580 C.ar      1 <0>         0.0685
      5 C5          1.2390   -0.6897    0.1604 C.ar      1 <0>         0.0485
      6 C6          0.0318   -0.0150    0.3734 C.ar      1 <0>        -0.0562
      7 N1          1.5762   -2.0003    0.1091 N.2       1 <0>        -0.4578
      8 C7          2.8605   -2.1158   -0.1224 C.2       1 <0>         0.3252
      9 N2          3.4248   -0.8737   -0.2339 N.pl3     1 <0>        -0.4399
     10 C8          4.8367   -0.5803   -0.4920 C.3       1 <0>         0.0458
     11 C9          5.1563    0.4807   -1.5471 C.3       1 <0>        -0.1650
     12 C10         5.4085   -0.9980   -1.8483 C.3       1 <0>        -0.1529
     13 C11         3.5913   -3.3965   -0.2443 C.2       1 <0>         0.1351
     14 C12         2.9884   -4.7353   -0.2398 C.2       1 <0>         0.3630
     15 N3          3.9431   -5.6151   -0.3673 N.2       1 <0>        -0.3532
     16 O1          5.1718   -4.9161   -0.4578 O.3       1 <0>         0.0382
     17 N4          4.8854   -3.5309   -0.3804 N.2       1 <0>        -0.2407
     18 N5          1.6338   -5.0167   -0.1200 N.pl3     1 <0>        -0.8023
     19 H1         -0.9278    1.8673    0.5369 H         1 <0>         0.1352
     20 H2          1.1276    3.1599    0.1502 H         1 <0>         0.1355
     21 H3          3.2667    2.0117   -0.2276 H         1 <0>         0.1283
     22 H4         -0.8773   -0.5730    0.5425 H         1 <0>         0.1354
     23 H5          5.4961   -0.6445    0.3735 H         1 <0>         0.1403
     24 H6          4.3161    0.9604   -2.0491 H         1 <0>         0.1057
     25 H7          6.0261    1.1149   -1.3757 H         1 <0>         0.1182
     26 H8          6.4443   -1.3367   -1.8751 H         1 <0>         0.1197
     27 H9          4.7342   -1.4912   -2.5485 H         1 <0>         0.0986
     28 H10         0.9943   -4.2931   -0.0289 H         1 <0>         0.4307
     29 H11         1.3272   -5.9370   -0.1273 H         1 <0>         0.4179
@<TRIPOS>BOND
     1    1    6 ar
     2    1    2 ar
     3    1   19 1
     4    2    3 ar
     5    2   20 1
     6    3    4 ar
     7    3   21 1
     8    4    9 1
     9    4    5 ar
    10    5    6 ar
    11    5    7 1
    12    6   22 1
    13    7    8 2
    14    8    9 1
    15    8   13 1
    16    9   10 1
    17   10   12 1
    18   10   11 1
    19   10   23 1
    20   11   12 1
    21   11   24 1
    22   11   25 1
    23   12   26 1
    24   12   27 1
    25   13   17 2
    26   13   14 1
    27   14   15 2
    28   14   18 1
    29   15   16 1
    30   16   17 1
    31   18   28 1
    32   18   29 1
@<TRIPOS>MOLECULE
CHEMBL1079295
   35    38     0     0     0
SMALL
USER_CHARGES

@<TRIPOS>ATOM
      1 C1         -0.0360    1.3149    0.3456 C.ar      1 <0>        -0.1242
      2 C2          1.1415    2.0476    0.4049 C.ar      1 <0>        -0.0889
      3 C3          2.3630    1.4186    0.2912 C.ar      1 <0>        -0.1131
      4 C4          2.4146    0.0422    0.1160 C.ar      1 <0>         0.0710
      5 C5          1.2214   -0.7004    0.0559 C.ar      1 <0>         0.0479
      6 C6         -0.0062   -0.0395    0.1738 C.ar      1 <0>        -0.0557
      7 N1          1.5667   -1.9983   -0.1180 N.2       1 <0>        -0.4571
      8 C7          2.8715   -2.1039   -0.1683 C.2       1 <0>         0.3165
      9 N2          3.4422   -0.8676   -0.0281 N.pl3     1 <0>        -0.4553
     10 C8          4.8760   -0.5666   -0.0310 C.3       1 <0>         0.1192
     11 C9          5.2604    0.1868    1.2591 C.3       1 <0>        -0.1370
     12 C10         6.3270    1.2107    0.7976 C.3       1 <0>        -0.1223
     13 C11         5.7946    1.6587   -0.5862 C.3       1 <0>        -0.1248
     14 C12         5.2156    0.3693   -1.2043 C.3       1 <0>        -0.1356
     15 C13         3.6165   -3.3695   -0.3487 C.2       1 <0>         0.1421
     16 C14         3.0302   -4.7150   -0.3890 C.2       1 <0>         0.3636
     17 N3          3.9940   -5.5770   -0.5620 N.2       1 <0>        -0.3513
     18 O1          5.2128   -4.8594   -0.6401 O.3       1 <0>         0.0400
     19 N4          4.9104   -3.4820   -0.5054 N.2       1 <0>        -0.2570
     20 N5          1.6808   -5.0182   -0.2639 N.pl3     1 <0>        -0.8013
     21 H1         -0.9855    1.8207    0.4406 H         1 <0>         0.1345
     22 H2          1.1004    3.1182    0.5408 H         1 <0>         0.1346
     23 H3          3.2757    1.9940    0.3378 H         1 <0>         0.1289
     24 H4         -0.9286   -0.5995    0.1295 H         1 <0>         0.1347
     25 H5          5.4508   -1.4892   -0.1109 H         1 <0>         0.1233
     26 H6          4.3929    0.7003    1.6739 H         1 <0>         0.0802
     27 H7          5.6835   -0.5013    1.9910 H         1 <0>         0.0788
     28 H8          6.3747    2.0552    1.4850 H         1 <0>         0.0773
     29 H9          7.3028    0.7347    0.7005 H         1 <0>         0.0761
     30 H10         5.0135    2.4099   -0.4695 H         1 <0>         0.0702
     31 H11         6.6077    2.0447   -1.2010 H         1 <0>         0.0764
     32 H12         5.9560   -0.0989   -1.8531 H         1 <0>         0.0835
     33 H13         4.3138    0.5994   -1.7715 H         1 <0>         0.0752
     34 H14         1.0336   -4.3069   -0.1371 H         1 <0>         0.4311
     35 H15         1.3854   -5.9413   -0.3034 H         1 <0>         0.4182
@<TRIPOS>BOND
     1    1    6 ar
     2    1    2 ar
     3    1   21 1
     4    2    3 ar
     5    2   22 1
     6    3    4 ar
     7    3   23 1
     8    4    9 1
     9    4    5 ar
    10    5    6 ar
    11    5    7 1
    12    6   24 1
    13    7    8 2
    14    8    9 1
    15    8   15 1
    16    9   10 1
    17   10   14 1
    18   10   11 1
    19   10   25 1
    20   11   12 1
    21   11   26 1
    22   11   27 1
    23   12   13 1
    24   12   28 1
    25   12   29 1
    26   13   14 1
    27   13   30 1
    28   13   31 1
    29   14   32 1
    30   14   33 1
    31   15   19 2
    32   15   16 1
    33   16   17 2
    34   16   20 1
    35   17   18 1
    36   18   19 1
    37   20   34 1
    38   20   35 1
@<TRIPOS>MOLECULE
CHEMBL375736
   50    52     0     0     0
SMALL
USER_CHARGES

@<TRIPOS>ATOM
      1 C1         -0.0187    1.5258    0.0104 C.3       1 <0>        -0.1606
      2 C2          0.0021   -0.0041    0.0020 C.3       1 <0>        -0.0895
      3 C3          0.7182   -0.4975   -1.2568 C.3       1 <0>        -0.1545
      4 C4          0.7421   -0.5109    1.2415 C.3       1 <0>        -0.1457
      5 C5         -0.0416   -0.1236    2.4973 C.3       1 <0>        -0.0146
      6 N1          0.6689   -0.6103    3.6874 N.4       1 <0>        -0.3846
      7 C6          0.6958   -2.0778    3.6734 C.3       1 <0>        -0.0140
      8 C7          1.5043   -2.5883    4.8680 C.3       1 <0>        -0.1423
      9 C8          0.8521   -2.1004    6.1648 C.3       1 <0>        -0.1540
     10 C9          0.7619   -0.5720    6.1357 C.3       1 <0>         0.1348
     11 C10        -0.0192   -0.1362    4.8941 C.3       1 <0>        -0.0142
     12 N2          2.1111   -0.0031    6.0895 N.pl3     1 <0>        -0.7505
     13 C11         2.8244    0.1953    7.2700 C.ar      1 <0>         0.2037
     14 C12         2.2698   -0.1465    8.4864 C.ar      1 <0>        -0.1776
     15 C13         2.9750    0.0476    9.6702 C.ar      1 <0>        -0.0757
     16 C14         4.2294    0.5794    9.6650 C.ar      1 <0>        -0.1235
     17 C15         4.8294    0.9405    8.4489 C.ar      1 <0>        -0.0783
     18 C16         4.1221    0.7417    7.2352 C.ar      1 <0>        -0.0584
     19 C17         4.7487    1.1069    6.0318 C.ar      1 <0>        -0.1622
     20 C18         6.0061    1.6292    6.0815 C.ar      1 <0>         0.0813
     21 N3          6.6480    1.7995    7.2291 N.ar      1 <0>        -0.4798
     22 C19         6.1198    1.4927    8.3907 C.ar      1 <0>         0.1524
     23 H1          1.0039    1.9031    0.0027 H         1 <0>         0.0616
     24 H2         -0.5459    1.8868   -0.8726 H         1 <0>         0.0693
     25 H3         -0.5289    1.8773    0.9072 H         1 <0>         0.0534
     26 H4         -1.0205   -0.3814    0.0098 H         1 <0>         0.0813
     27 H5          1.7408   -0.1202   -1.2645 H         1 <0>         0.0603
     28 H6          0.7330   -1.5874   -1.2628 H         1 <0>         0.0598
     29 H7          0.1910   -0.1364   -2.1398 H         1 <0>         0.0680
     30 H8          0.8346   -1.5958    1.1912 H         1 <0>         0.0885
     31 H9          1.7350   -0.0630    1.2804 H         1 <0>         0.0866
     32 H10        -0.1341    0.9613    2.5476 H         1 <0>         0.1332
     33 H11        -1.0345   -0.5716    2.4584 H         1 <0>         0.1332
     34 H12        -0.3232   -2.4600    3.7349 H         1 <0>         0.1328
     35 H13         1.1573   -2.4235    2.7484 H         1 <0>         0.1335
     36 H14         1.5216   -3.6781    4.8568 H         1 <0>         0.1143
     37 H15         2.5236   -2.2069    4.8073 H         1 <0>         0.0865
     38 H16        -0.1489   -2.5231    6.2508 H         1 <0>         0.0929
     39 H17         1.4557   -2.4138    7.0167 H         1 <0>         0.0999
     40 H18         0.2484   -0.2206    7.0307 H         1 <0>         0.1267
     41 H19        -0.0855    0.9516    4.8704 H         1 <0>         0.1373
     42 H20        -1.0229   -0.5598    4.9296 H         1 <0>         0.1461
     43 H21         2.5079    0.2355    5.2372 H         1 <0>         0.3881
     44 H22         1.2766   -0.5694    8.5202 H         1 <0>         0.1260
     45 H23         2.5197   -0.2279   10.6100 H         1 <0>         0.1317
     46 H24         4.7604    0.7230   10.5945 H         1 <0>         0.1368
     47 H25         4.2438    0.9759    5.0861 H         1 <0>         0.1212
     48 H26         6.4937    1.9121    5.1603 H         1 <0>         0.1540
     49 H27         6.6819    1.6509    9.2992 H         1 <0>         0.1700
     50 H28         1.6146   -0.2585    3.6805 H         1 <0>         0.4148
@<TRIPOS>BOND
     1    1    2 1
     2    1   23 1
     3    1   24 1
     4    1   25 1
     5    2    3 1
     6    2    4 1
     7    2   26 1
     8    3   27 1
     9    3   28 1
    10    3   29 1
    11    4    5 1
    12    4   30 1
    13    4   31 1
    14    5    6 1
    15    5   32 1
    16    5   33 1
    17    6   11 1
    18    6    7 1
    19    6   50 1
    20    7    8 1
    21    7   34 1
    22    7   35 1
    23    8    9 1
    24    8   36 1
    25    8   37 1
    26    9   10 1
    27    9   38 1
    28    9   39 1
    29   10   11 1
    30   10   12 1
    31   10   40 1
    32   11   41 1
    33   11   42 1
    34   12   13 1
    35   12   43 1
    36   13   18 ar
    37   13   14 ar
    38   14   15 ar
    39   14   44 1
    40   15   16 ar
    41   15   45 1
    42   16   17 ar
    43   16   46 1
    44   17   22 ar
    45   17   18 ar
    46   18   19 ar
    47   19   20 ar
    48   19   47 1
    49   20   21 ar
    50   20   48 1
    51   21   22 ar
    52   22   49 1
@<TRIPOS>MOLECULE
CHEMBL375736__1
   51    53     0     0     0
SMALL
USER_CHARGES

@<TRIPOS>ATOM
      1 C1         -0.0187    1.5258    0.0104 C.3       1 <0>        -0.1604
      2 C2          0.0021   -0.0041    0.0020 C.3       1 <0>        -0.0907
      3 C3          0.7182   -0.4975   -1.2568 C.3       1 <0>        -0.1553
      4 C4          0.7421   -0.5109    1.2415 C.3       1 <0>        -0.1441
      5 C5         -0.0416   -0.1236    2.4973 C.3       1 <0>        -0.0164
      6 N1          0.6689   -0.6103    3.6874 N.4       1 <0>        -0.3842
      7 C6          0.6958   -2.0778    3.6734 C.3       1 <0>        -0.0179
      8 C7          1.5043   -2.5883    4.8680 C.3       1 <0>        -0.1415
      9 C8          0.8521   -2.1004    6.1648 C.3       1 <0>        -0.1560
     10 C9          0.7619   -0.5720    6.1357 C.3       1 <0>         0.1297
     11 C10        -0.0192   -0.1362    4.8941 C.3       1 <0>        -0.0158
     12 N2          2.1111   -0.0031    6.0895 N.pl3     1 <0>        -0.7435
     13 C11         2.8244    0.1953    7.2700 C.ar      1 <0>         0.2137
     14 C12         2.2698   -0.1465    8.4864 C.ar      1 <0>        -0.1323
     15 C13         2.9750    0.0476    9.6702 C.ar      1 <0>        -0.0421
     16 C14         4.2294    0.5794    9.6650 C.ar      1 <0>        -0.1049
     17 C15         4.8294    0.9405    8.4489 C.ar      1 <0>        -0.0675
     18 C16         4.1221    0.7417    7.2352 C.ar      1 <0>        -0.0417
     19 C17         4.7487    1.1069    6.0318 C.ar      1 <0>        -0.0801
     20 C18         6.0061    1.6292    6.0815 C.ar      1 <0>         0.0504
     21 N3          6.6480    1.7995    7.2291 N.ar      1 <0>        -0.4377
     22 C19         6.1198    1.4927    8.3907 C.ar      1 <0>         0.2203
     23 H1          1.0039    1.9031    0.0027 H         1 <0>         0.0603
     24 H2         -0.5459    1.8868   -0.8726 H         1 <0>         0.0718
     25 H3         -0.5289    1.8773    0.9072 H         1 <0>         0.0525
     26 H4         -1.0205   -0.3814    0.0098 H         1 <0>         0.0833
     27 H5          1.7408   -0.1202   -1.2645 H         1 <0>         0.0595
     28 H6          0.7330   -1.5874   -1.2628 H         1 <0>         0.0608
     29 H7          0.1910   -0.1364   -2.1398 H         1 <0>         0.0704
     30 H8          0.8346   -1.5958    1.1912 H         1 <0>         0.0893
     31 H9          1.7350   -0.0630    1.2804 H         1 <0>         0.0847
     32 H10        -0.1341    0.9613    2.5476 H         1 <0>         0.1350
     33 H11        -1.0345   -0.5716    2.4584 H         1 <0>         0.1368
     34 H12        -0.3232   -2.4600    3.7349 H         1 <0>         0.1373
     35 H13         1.1573   -2.4235    2.7484 H         1 <0>         0.1374
     36 H14         1.5216   -3.6781    4.8568 H         1 <0>         0.1191
     37 H15         2.5236   -2.2069    4.8073 H         1 <0>         0.0827
     38 H16        -0.1489   -2.5231    6.2508 H         1 <0>         0.1019
     39 H17         1.4557   -2.4138    7.0167 H         1 <0>         0.0996
     40 H18         0.2484   -0.2206    7.0307 H         1 <0>         0.1326
     41 H19        -0.0855    0.9516    4.8704 H         1 <0>         0.1402
     42 H20        -1.0229   -0.5598    4.9296 H         1 <0>         0.1528
     43 H21         2.5079    0.2355    5.2372 H         1 <0>         0.3926
     44 H22         1.2766   -0.5694    8.5202 H         1 <0>         0.1486
     45 H23         2.5197   -0.2279   10.6100 H         1 <0>         0.1565
     46 H24         4.7604    0.7230   10.5945 H         1 <0>         0.1595
     47 H25         4.2438    0.9759    5.0861 H         1 <0>         0.1638
     48 H26         6.4937    1.9121    5.1603 H         1 <0>         0.2029
     49 H27         6.6819    1.6509    9.2992 H         1 <0>         0.2211
     50 H28         1.6146   -0.2585    3.6805 H         1 <0>         0.4098
     51 H29         7.5422    2.1749    7.2100 H         1 <0>         0.4552
@<TRIPOS>BOND
     1    1    2 1
     2    1   23 1
     3    1   24 1
     4    1   25 1
     5    2    3 1
     6    2    4 1
     7    2   26 1
     8    3   27 1
     9    3   28 1
    10    3   29 1
    11    4    5 1
    12    4   30 1
    13    4   31 1
    14    5    6 1
    15    5   32 1
    16    5   33 1
    17    6   11 1
    18    6    7 1
    19    6   50 1
    20    7    8 1
    21    7   34 1
    22    7   35 1
    23    8    9 1
    24    8   36 1
    25    8   37 1
    26    9   10 1
    27    9   38 1
    28    9   39 1
    29   10   11 1
    30   10   12 1
    31   10   40 1
    32   11   41 1
    33   11   42 1
    34   12   13 1
    35   12   43 1
    36   13   18 ar
    37   13   14 ar
    38   14   15 ar
    39   14   44 1
    40   15   16 ar
    41   15   45 1
    42   16   17 ar
    43   16   46 1
    44   17   22 ar
    45   17   18 ar
    46   18   19 ar
    47   19   20 ar
    48   19   47 1
    49   20   21 ar
    50   20   48 1
    51   21   22 ar
    52   21   51 1
    53   22   49 1
@<TRIPOS>MOLECULE
CHEMBL375736__2
   50    52     0     0     0
SMALL
USER_CHARGES

@<TRIPOS>ATOM
      1 C1         -0.0187    1.5258    0.0104 C.3       1 <0>        -0.1606
      2 C2          0.0021   -0.0041    0.0020 C.3       1 <0>        -0.0900
      3 C3          0.7182   -0.4975   -1.2568 C.3       1 <0>        -0.1544
      4 C4          0.7421   -0.5109    1.2415 C.3       1 <0>        -0.1449
      5 C5         -0.0416   -0.1236    2.4973 C.3       1 <0>        -0.0129
      6 N1          0.6689   -0.6103    3.6874 N.4       1 <0>        -0.3778
      7 C6          0.6958   -2.0778    3.6734 C.3       1 <0>        -0.0151
      8 C7          1.5043   -2.5883    4.8680 C.3       1 <0>        -0.1426
      9 C8          0.8521   -2.1004    6.1648 C.3       1 <0>        -0.1572
     10 C9          0.7619   -0.5720    6.1357 C.3       1 <0>         0.1405
     11 C10        -0.0192   -0.1362    4.8941 C.3       1 <0>        -0.0177
     12 N2          0.0718   -0.0997    7.3386 N.pl3     1 <0>        -0.7365
     13 C11         0.7855    0.0987    8.5187 C.ar      1 <0>         0.2094
     14 C12         2.1436   -0.1417    8.5619 C.ar      1 <0>        -0.1879
     15 C13         2.8644    0.0542    9.7359 C.ar      1 <0>        -0.0757
     16 C14         2.2542    0.4872   10.8746 C.ar      1 <0>        -0.1268
     17 C15         0.8744    0.7433   10.8729 C.ar      1 <0>        -0.0765
     18 C16         0.1303    0.5526    9.6800 C.ar      1 <0>        -0.0598
     19 C17        -1.2485    0.8219    9.7050 C.ar      1 <0>        -0.1568
     20 C18        -1.8086    1.2581   10.8679 C.ar      1 <0>         0.0788
     21 N3         -1.0896    1.4338   11.9680 N.ar      1 <0>        -0.4782
     22 C19         0.1990    1.1905   12.0206 C.ar      1 <0>         0.1478
     23 H1          1.0039    1.9031    0.0027 H         1 <0>         0.0619
     24 H2         -0.5459    1.8868   -0.8726 H         1 <0>         0.0690
     25 H3         -0.5289    1.8773    0.9072 H         1 <0>         0.0533
     26 H4         -1.0205   -0.3814    0.0098 H         1 <0>         0.0807
     27 H5          1.7408   -0.1202   -1.2645 H         1 <0>         0.0605
     28 H6          0.7330   -1.5874   -1.2628 H         1 <0>         0.0598
     29 H7          0.1910   -0.1364   -2.1398 H         1 <0>         0.0677
     30 H8          0.8346   -1.5958    1.1912 H         1 <0>         0.0885
     31 H9          1.7350   -0.0630    1.2804 H         1 <0>         0.0883
     32 H10        -0.1341    0.9613    2.5476 H         1 <0>         0.1333
     33 H11        -1.0345   -0.5716    2.4584 H         1 <0>         0.1309
     34 H12        -0.3232   -2.4600    3.7349 H         1 <0>         0.1304
     35 H13         1.1573   -2.4235    2.7484 H         1 <0>         0.1361
     36 H14         1.5216   -3.6781    4.8568 H         1 <0>         0.1175
     37 H15         2.5236   -2.2069    4.8073 H         1 <0>         0.0903
     38 H16        -0.1489   -2.5231    6.2508 H         1 <0>         0.0861
     39 H17         1.4557   -2.4138    7.0167 H         1 <0>         0.0995
     40 H18         1.7657   -0.1487    6.1013 H         1 <0>         0.1018
     41 H19        -0.0855    0.9516    4.8704 H         1 <0>         0.1366
     42 H20        -1.0229   -0.5598    4.9296 H         1 <0>         0.1337
     43 H21        -0.8821    0.0750    7.3134 H         1 <0>         0.4056
     44 H22         2.6530   -0.4863    7.6741 H         1 <0>         0.1215
     45 H23         3.9266   -0.1408    9.7448 H         1 <0>         0.1298
     46 H24         2.8308    0.6326   11.7761 H         1 <0>         0.1359
     47 H25        -1.8523    0.6861    8.8199 H         1 <0>         0.1279
     48 H26        -2.8679    1.4670   10.8943 H         1 <0>         0.1551
     49 H27         0.7420    1.3478   12.9409 H         1 <0>         0.1693
     50 H28         1.6146   -0.2585    3.6805 H         1 <0>         0.4239
@<TRIPOS>BOND
     1    1    2 1
     2    1   23 1
     3    1   24 1
     4    1   25 1
     5    2    3 1
     6    2    4 1
     7    2   26 1
     8    3   27 1
     9    3   28 1
    10    3   29 1
    11    4    5 1
    12    4   30 1
    13    4   31 1
    14    5    6 1
    15    5   32 1
    16    5   33 1
    17    6   11 1
    18    6    7 1
    19    6   50 1
    20    7    8 1
    21    7   34 1
    22    7   35 1
    23    8    9 1
    24    8   36 1
    25    8   37 1
    26    9   10 1
    27    9   38 1
    28    9   39 1
    29   10   11 1
    30   10   12 1
    31   10   40 1
    32   11   41 1
    33   11   42 1
    34   12   13 1
    35   12   43 1
    36   13   18 ar
    37   13   14 ar
    38   14   15 ar
    39   14   44 1
    40   15   16 ar
    41   15   45 1
    42   16   17 ar
    43   16   46 1
    44   17   22 ar
    45   17   18 ar
    46   18   19 ar
    47   19   20 ar
    48   19   47 1
    49   20   21 ar
    50   20   48 1
    51   21   22 ar
    52   22   49 1
@<TRIPOS>MOLECULE
CHEMBL375736__3
   51    53     0     0     0
SMALL
USER_CHARGES

@<TRIPOS>ATOM
      1 C1         -0.0187    1.5258    0.0104 C.3       1 <0>        -0.1607
      2 C2          0.0021   -0.0041    0.0020 C.3       1 <0>        -0.0898
      3 C3          0.7182   -0.4975   -1.2568 C.3       1 <0>        -0.1558
      4 C4          0.7421   -0.5109    1.2415 C.3       1 <0>        -0.1454
      5 C5         -0.0416   -0.1236    2.4973 C.3       1 <0>        -0.0130
      6 N1          0.6689   -0.6103    3.6874 N.4       1 <0>        -0.3783
      7 C6          0.6958   -2.0778    3.6734 C.3       1 <0>        -0.0177
      8 C7          1.5043   -2.5883    4.8680 C.3       1 <0>        -0.1436
      9 C8          0.8521   -2.1004    6.1648 C.3       1 <0>        -0.1569
     10 C9          0.7619   -0.5720    6.1357 C.3       1 <0>         0.1332
     11 C10        -0.0192   -0.1362    4.8941 C.3       1 <0>        -0.0176
     12 N2          0.0718   -0.0997    7.3386 N.pl3     1 <0>        -0.7280
     13 C11         0.7855    0.0987    8.5187 C.ar      1 <0>         0.2186
     14 C12         2.1436   -0.1417    8.5619 C.ar      1 <0>        -0.1437
     15 C13         2.8644    0.0542    9.7359 C.ar      1 <0>        -0.0413
     16 C14         2.2542    0.4872   10.8746 C.ar      1 <0>        -0.1100
     17 C15         0.8744    0.7433   10.8729 C.ar      1 <0>        -0.0647
     18 C16         0.1303    0.5526    9.6800 C.ar      1 <0>        -0.0421
     19 C17        -1.2485    0.8219    9.7050 C.ar      1 <0>        -0.0747
     20 C18        -1.8086    1.2581   10.8679 C.ar      1 <0>         0.0487
     21 N3         -1.0896    1.4338   11.9680 N.ar      1 <0>        -0.4355
     22 C19         0.1990    1.1905   12.0206 C.ar      1 <0>         0.2152
     23 H1          1.0039    1.9031    0.0027 H         1 <0>         0.0624
     24 H2         -0.5459    1.8868   -0.8726 H         1 <0>         0.0709
     25 H3         -0.5289    1.8773    0.9072 H         1 <0>         0.0514
     26 H4         -1.0205   -0.3814    0.0098 H         1 <0>         0.0812
     27 H5          1.7408   -0.1202   -1.2645 H         1 <0>         0.0612
     28 H6          0.7330   -1.5874   -1.2628 H         1 <0>         0.0607
     29 H7          0.1910   -0.1364   -2.1398 H         1 <0>         0.0696
     30 H8          0.8346   -1.5958    1.1912 H         1 <0>         0.0894
     31 H9          1.7350   -0.0630    1.2804 H         1 <0>         0.0892
     32 H10        -0.1341    0.9613    2.5476 H         1 <0>         0.1345
     33 H11        -1.0345   -0.5716    2.4584 H         1 <0>         0.1324
     34 H12        -0.3232   -2.4600    3.7349 H         1 <0>         0.1326
     35 H13         1.1573   -2.4235    2.7484 H         1 <0>         0.1408
     36 H14         1.5216   -3.6781    4.8568 H         1 <0>         0.1221
     37 H15         2.5236   -2.2069    4.8073 H         1 <0>         0.0927
     38 H16        -0.1489   -2.5231    6.2508 H         1 <0>         0.0900
     39 H17         1.4557   -2.4138    7.0167 H         1 <0>         0.0989
     40 H18         1.7657   -0.1487    6.1013 H         1 <0>         0.1078
     41 H19        -0.0855    0.9516    4.8704 H         1 <0>         0.1382
     42 H20        -1.0229   -0.5598    4.9296 H         1 <0>         0.1361
     43 H21        -0.8821    0.0750    7.3134 H         1 <0>         0.4101
     44 H22         2.6530   -0.4863    7.6741 H         1 <0>         0.1439
     45 H23         3.9266   -0.1408    9.7448 H         1 <0>         0.1544
     46 H24         2.8308    0.6326   11.7761 H         1 <0>         0.1584
     47 H25        -1.8523    0.6861    8.8199 H         1 <0>         0.1702
     48 H26        -2.8679    1.4670   10.8943 H         1 <0>         0.2038
     49 H27         0.7420    1.3478   12.9409 H         1 <0>         0.2204
     50 H28         1.6146   -0.2585    3.6805 H         1 <0>         0.4249
     51 H29        -1.5364    1.7468   12.7700 H         1 <0>         0.4548
@<TRIPOS>BOND
     1    1    2 1
     2    1   23 1
     3    1   24 1
     4    1   25 1
     5    2    3 1
     6    2    4 1
     7    2   26 1
     8    3   27 1
     9    3   28 1
    10    3   29 1
    11    4    5 1
    12    4   30 1
    13    4   31 1
    14    5    6 1
    15    5   32 1
    16    5   33 1
    17    6   11 1
    18    6    7 1
    19    6   50 1
    20    7    8 1
    21    7   34 1
    22    7   35 1
    23    8    9 1
    24    8   36 1
    25    8   37 1
    26    9   10 1
    27    9   38 1
    28    9   39 1
    29   10   11 1
    30   10   12 1
    31   10   40 1
    32   11   41 1
    33   11   42 1
    34   12   13 1
    35   12   43 1
    36   13   18 ar
    37   13   14 ar
    38   14   15 ar
    39   14   44 1
    40   15   16 ar
    41   15   45 1
    42   16   17 ar
    43   16   46 1
    44   17   22 ar
    45   17   18 ar
    46   18   19 ar
    47   19   20 ar
    48   19   47 1
    49   20   21 ar
    50   20   48 1
    51   21   22 ar
    52   21   51 1
    53   22   49 1
@<TRIPOS>MOLECULE
CHEMBL445180
   47    50     0     0     0
SMALL
USER_CHARGES

@<TRIPOS>ATOM
      1 C1         -0.0187    1.5258    0.0104 C.3       1 <0>        -0.1646
      2 C2          0.0021   -0.0041    0.0020 C.3       1 <0>         0.0995
      3 N1         -1.3723   -0.5112    0.0124 N.pl3     1 <0>        -0.4459
      4 C3         -2.1310   -0.7950    1.1244 C.ar      1 <0>         0.0776
      5 C4         -1.9271   -0.7242    2.5032 C.ar      1 <0>         0.0811
      6 C5         -2.9505   -1.1045    3.3520 C.ar      1 <0>         0.0292
      7 N2         -4.1104   -1.5312    2.8826 N.ar      1 <0>        -0.4401
      8 C6         -4.3600   -1.6191    1.5852 C.ar      1 <0>         0.2686
      9 C7         -3.3737   -1.2518    0.6484 C.ar      1 <0>         0.0473
     10 N3         -3.3196   -1.2270   -0.6953 N.2       1 <0>        -0.4403
     11 C8         -2.1472   -0.7867   -1.0834 C.2       1 <0>         0.3382
     12 C9         -1.7238   -0.6174   -2.4907 C.2       1 <0>         0.1319
     13 C10        -2.5424   -0.9019   -3.6760 C.2       1 <0>         0.3638
     14 N4         -1.8340   -0.6322   -4.7376 N.2       1 <0>        -0.3425
     15 O1         -0.5634   -0.1747   -4.3102 O.3       1 <0>         0.0490
     16 N5         -0.5574   -0.1828   -2.8936 N.2       1 <0>        -0.2492
     17 N6         -3.8473   -1.3769   -3.6682 N.pl3     1 <0>        -0.8010
     18 C11        -5.6786   -2.1049    1.1177 C.2       1 <0>        -0.1571
     19 C12        -6.5204   -3.1287    1.7487 C.2       1 <0>        -0.1809
     20 C13        -7.6145   -3.2364    0.9769 C.2       1 <0>        -0.0334
     21 O2         -7.5108   -2.3804   -0.0510 O.3       1 <0>        -0.1739
     22 C14        -6.3633   -1.6909    0.0181 C.2       1 <0>         0.0225
     23 O3         -0.7402   -0.2886    3.0043 O.3       1 <0>        -0.3104
     24 C15        -0.6130   -0.2463    4.4270 C.3       1 <0>         0.0582
     25 C16         0.7798    0.2657    4.7995 C.3       1 <0>        -0.1543
     26 C17         0.9160    0.3110    6.3227 C.3       1 <0>        -0.0047
     27 N7          2.2534    0.8026    6.6804 N.4       1 <0>        -0.6359
     28 H1          1.0039    1.9031    0.0027 H         1 <0>         0.0849
     29 H2         -0.5459    1.8868   -0.8726 H         1 <0>         0.0653
     30 H3         -0.5289    1.8773    0.9072 H         1 <0>         0.0622
     31 H4          0.5123   -0.3556   -0.8948 H         1 <0>         0.1088
     32 H5          0.5293   -0.3651    0.8851 H         1 <0>         0.1014
     33 H6         -2.7990   -1.0520    4.4201 H         1 <0>         0.1673
     34 H7         -4.2956   -1.5495   -2.8254 H         1 <0>         0.4292
     35 H8         -4.3106   -1.5360   -4.5054 H         1 <0>         0.4216
     36 H9         -6.3038   -3.6831    2.6500 H         1 <0>         0.1556
     37 H10        -8.4438   -3.9049    1.1548 H         1 <0>         0.2081
     38 H11        -6.0368   -0.9362   -0.6821 H         1 <0>         0.2077
     39 H12        -1.3683    0.4227    4.8396 H         1 <0>         0.0787
     40 H13        -0.7530   -1.2476    4.8343 H         1 <0>         0.0786
     41 H14         1.5351   -0.4032    4.3869 H         1 <0>         0.1004
     42 H15         0.9198    1.2670    4.3922 H         1 <0>         0.1006
     43 H16         0.1607    0.9799    6.7353 H         1 <0>         0.1396
     44 H17         0.7760   -0.6903    6.7300 H         1 <0>         0.1396
     45 H18         2.9525    0.1834    6.2985 H         1 <0>         0.4375
     46 H19         2.3829    1.7295    6.3034 H         1 <0>         0.4374
     47 H20         2.3432    0.8325    7.6849 H         1 <0>         0.4428
@<TRIPOS>BOND
     1    1    2 1
     2    1   28 1
     3    1   29 1
     4    1   30 1
     5    2    3 1
     6    2   31 1
     7    2   32 1
     8    3   11 1
     9    3    4 1
    10    4    9 ar
    11    4    5 ar
    12    5    6 ar
    13    5   23 1
    14    6    7 ar
    15    6   33 1
    16    7    8 ar
    17    8    9 ar
    18    8   18 1
    19    9   10 1
    20   10   11 2
    21   11   12 1
    22   12   16 2
    23   12   13 1
    24   13   14 2
    25   13   17 1
    26   14   15 1
    27   15   16 1
    28   17   34 1
    29   17   35 1
    30   18   22 2
    31   18   19 1
    32   19   20 2
    33   19   36 1
    34   20   21 1
    35   20   37 1
    36   21   22 1
    37   22   38 1
    38   23   24 1
    39   24   25 1
    40   24   39 1
    41   24   40 1
    42   25   26 1
    43   25   41 1
    44   25   42 1
    45   26   27 1
    46   26   43 1
    47   26   44 1
    48   27   45 1
    49   27   46 1
    50   27   47 1
@<TRIPOS>MOLECULE
CHEMBL599162
   53    57     0     0     0
SMALL
USER_CHARGES

@<TRIPOS>ATOM
      1 C1         -1.1947   -3.5733    0.2528 C.2       1 <0>        -0.1764
      2 C2         -0.2286   -4.5038    0.3307 C.2       1 <0>         0.0508
      3 N1          0.9971   -3.8975    0.3944 N.pl3     1 <0>        -0.5819
      4 H1          1.8457   -4.3633    0.4556 H         1 <0>         0.4220
      5 C3          0.8481   -2.5315    0.3585 C.ar      1 <0>         0.2869
      6 C4         -0.5318   -2.2712    0.2683 C.ar      1 <0>        -0.1281
      7 C5         -0.9802   -0.9383    0.2149 C.ar      1 <0>         0.0561
      8 C6         -0.0197    0.0734    0.2548 C.ar      1 <0>        -0.1901
      9 C7          1.3175   -0.2677    0.3439 C.ar      1 <0>         0.1469
     10 N2          1.7103   -1.5238    0.3924 N.ar      1 <0>        -0.4956
     11 C8         -2.4231   -0.6199    0.1192 C.ar      1 <0>         0.0521
     12 C9         -2.8477    0.7042    0.1695 C.ar      1 <0>         0.1365
     13 N3         -4.1356    0.9922    0.0843 N.ar      1 <0>        -0.4966
     14 C10        -5.0263    0.0207   -0.0497 C.ar      1 <0>         0.3899
     15 C11        -4.6027   -1.3161   -0.1013 C.ar      1 <0>         0.2565
     16 N4         -3.3142   -1.6020   -0.0206 N.ar      1 <0>        -0.3893
     17 N5         -5.5363   -2.3385   -0.2420 N.pl3     1 <0>        -0.6431
     18 C12        -5.9107   -2.8322   -1.5742 C.3       1 <0>         0.1452
     19 C13        -5.7197   -4.3518   -1.6085 C.3       1 <0>        -0.1604
     20 C14        -6.5056   -4.9868   -0.4591 C.3       1 <0>         0.0303
     21 C15        -5.9724   -4.4630    0.8764 C.3       1 <0>        -0.1608
     22 C16        -6.1617   -2.9488    0.9391 C.3       1 <0>         0.1399
     23 N6         -6.3516   -6.4468   -0.5088 N.4       1 <0>        -0.6372
     24 N7         -6.3799    0.3254   -0.1386 N.pl3     1 <0>        -0.5931
     25 C17        -7.4796   -0.6504   -0.1400 C.3       1 <0>         0.1084
     26 C18        -8.7958    0.1427   -0.2817 C.3       1 <0>        -0.1404
     27 C19        -8.3300    1.4777   -0.9207 C.3       1 <0>        -0.1350
     28 C20        -6.9506    1.6809   -0.2407 C.3       1 <0>         0.1113
     29 H2         -2.2575   -3.7533    0.1868 H         1 <0>         0.1515
     30 H3         -0.3943   -5.5709    0.3413 H         1 <0>         0.1733
     31 H4         -0.3173    1.1109    0.2161 H         1 <0>         0.1427
     32 H5          2.0593    0.5166    0.3743 H         1 <0>         0.1680
     33 H6         -2.1240    1.4984    0.2786 H         1 <0>         0.1764
     34 H7         -6.9548   -2.5906   -1.7733 H         1 <0>         0.0742
     35 H8         -5.2757   -2.3670   -2.3281 H         1 <0>         0.0896
     36 H9         -6.0844   -4.7429   -2.5583 H         1 <0>         0.0950
     37 H10        -4.6612   -4.5880   -1.4996 H         1 <0>         0.0950
     38 H11        -7.5606   -4.7297   -0.5548 H         1 <0>         0.1417
     39 H12        -6.5169   -4.9333    1.6952 H         1 <0>         0.0955
     40 H13        -4.9115   -4.6981    0.9619 H         1 <0>         0.0941
     41 H14        -5.6922   -2.5606    1.8430 H         1 <0>         0.0891
     42 H15        -7.2267   -2.7169    0.9496 H         1 <0>         0.0772
     43 H16        -5.3751   -6.6852   -0.4207 H         1 <0>         0.4335
     44 H17        -6.8697   -6.8657    0.2490 H         1 <0>         0.4357
     45 H18        -7.3668   -1.3348   -0.9809 H         1 <0>         0.0772
     46 H19        -7.4817   -1.2079    0.7966 H         1 <0>         0.0703
     47 H20        -9.4910   -0.3781   -0.9401 H         1 <0>         0.0838
     48 H21        -9.2467    0.3193    0.6949 H         1 <0>         0.0785
     49 H22        -8.2259    1.3783   -2.0011 H         1 <0>         0.0772
     50 H23        -9.0114    2.2902   -0.6685 H         1 <0>         0.0892
     51 H24        -7.0743    2.1161    0.7509 H         1 <0>         0.0696
     52 H25        -6.3139    2.3151   -0.8576 H         1 <0>         0.0812
     53 H26        -6.7042   -6.7925   -1.3887 H         1 <0>         0.4357
@<TRIPOS>BOND
     1    1    6 1
     2    1    2 2
     3    1   29 1
     4    2    3 1
     5    2   30 1
     6    3    4 1
     7    3    5 1
     8    5   10 ar
     9    5    6 ar
    10    6    7 ar
    11    7    8 ar
    12    7   11 1
    13    8    9 ar
    14    8   31 1
    15    9   10 ar
    16    9   32 1
    17   11   16 ar
    18   11   12 ar
    19   12   13 ar
    20   12   33 1
    21   13   14 ar
    22   14   15 ar
    23   14   24 1
    24   15   16 ar
    25   15   17 1
    26   17   22 1
    27   17   18 1
    28   18   19 1
    29   18   34 1
    30   18   35 1
    31   19   20 1
    32   19   36 1
    33   19   37 1
    34   20   21 1
    35   20   23 1
    36   20   38 1
    37   21   22 1
    38   21   39 1
    39   21   40 1
    40   22   41 1
    41   22   42 1
    42   23   43 1
    43   23   44 1
    44   23   53 1
    45   24   28 1
    46   24   25 1
    47   25   26 1
    48   25   45 1
    49   25   46 1
    50   26   27 1
    51   26   47 1
    52   26   48 1
    53   27   28 1
    54   27   49 1
    55   27   50 1
    56   28   51 1
    57   28   52 1
@<TRIPOS>MOLECULE
CHEMBL493251
   48    51     0     0     0
SMALL
USER_CHARGES

@<TRIPOS>ATOM
      1 C1         -0.0187    1.5258    0.0104 C.3       1 <0>        -0.1649
      2 C2          0.0021   -0.0041    0.0020 C.3       1 <0>         0.0994
      3 N1          0.6878   -0.4765   -1.2033 N.pl3     1 <0>        -0.4450
      4 C3          0.1085   -0.7452   -2.4219 C.ar      1 <0>         0.0788
      5 C4         -1.1889   -0.6846   -2.9331 C.ar      1 <0>         0.0804
      6 C5         -1.4079   -1.0418   -4.2518 C.ar      1 <0>         0.0329
      7 N2         -0.4167   -1.4367   -5.0311 N.ar      1 <0>        -0.4343
      8 C6          0.8356   -1.5139   -4.6007 C.ar      1 <0>         0.2637
      9 C7          1.1488   -1.1684   -3.2690 C.ar      1 <0>         0.0417
     10 N3          2.2847   -1.1402   -2.5505 N.2       1 <0>        -0.4452
     11 C8          2.0283   -0.7288   -1.3320 C.2       1 <0>         0.3385
     12 C9          3.0330   -0.5653   -0.2588 C.2       1 <0>         0.1312
     13 C10         4.4730   -0.8252   -0.3810 C.2       1 <0>         0.3632
     14 N4          5.0345   -0.5695    0.7684 N.2       1 <0>        -0.3413
     15 O1          4.0226   -0.1452    1.6641 O.3       1 <0>         0.0500
     16 N5          2.7926   -0.1588    0.9614 N.2       1 <0>        -0.2481
     17 N6          5.1254   -1.2679   -1.5241 N.pl3     1 <0>        -0.8016
     18 C11         1.9020   -1.9616   -5.5154 C.2       1 <0>         0.0340
     19 C12         1.9767   -1.6991   -6.8525 C.2       1 <0>        -0.1295
     20 C13         3.1449   -2.3097   -7.3335 C.2       1 <0>        -0.2056
     21 C14         3.7479   -2.9229   -6.2911 C.2       1 <0>         0.0180
     22 N7          2.9993   -2.7115   -5.1723 N.pl3     1 <0>        -0.5406
     23 H1          3.2062   -3.0381   -4.2827 H         1 <0>         0.4164
     24 O2         -2.2223   -0.2811   -2.1468 O.3       1 <0>        -0.3103
     25 C15        -3.5190   -0.2470   -2.7464 C.3       1 <0>         0.0578
     26 C16        -4.5452    0.2280   -1.7158 C.3       1 <0>        -0.1543
     27 C17        -5.9335    0.2645   -2.3578 C.3       1 <0>        -0.0048
     28 N8         -6.9187    0.7206   -1.3683 N.4       1 <0>        -0.6359
     29 H2          1.0039    1.9031    0.0027 H         1 <0>         0.0650
     30 H3         -0.5459    1.8868   -0.8726 H         1 <0>         0.0627
     31 H4         -0.5289    1.8773    0.9072 H         1 <0>         0.0853
     32 H5          0.5293   -0.3651    0.8851 H         1 <0>         0.1087
     33 H6         -1.0205   -0.3814    0.0098 H         1 <0>         0.1020
     34 H7         -2.4099   -0.9971   -4.6523 H         1 <0>         0.1694
     35 H8          4.6220   -1.4326   -2.3368 H         1 <0>         0.4278
     36 H9          6.0844   -1.4125   -1.5100 H         1 <0>         0.4215
     37 H10         1.2676   -1.1277   -7.4331 H         1 <0>         0.1417
     38 H11         3.4985   -2.2930   -8.3538 H         1 <0>         0.1427
     39 H12         4.6704   -3.4827   -6.3363 H         1 <0>         0.1719
     40 H13        -3.5098    0.4394   -3.5931 H         1 <0>         0.0793
     41 H14        -3.7861   -1.2459   -3.0914 H         1 <0>         0.0790
     42 H15        -4.5543   -0.4584   -0.8691 H         1 <0>         0.1002
     43 H16        -4.2780    1.2269   -1.3708 H         1 <0>         0.1006
     44 H17        -5.9243    0.9510   -3.2045 H         1 <0>         0.1399
     45 H18        -6.2006   -0.7343   -2.7028 H         1 <0>         0.1397
     46 H19        -6.9272    0.0852   -0.5845 H         1 <0>         0.4374
     47 H20        -6.6714    1.6453   -1.0490 H         1 <0>         0.4374
     48 H21        -7.8343    0.7447   -1.7917 H         1 <0>         0.4429
@<TRIPOS>BOND
     1    1    2 1
     2    1   29 1
     3    1   30 1
     4    1   31 1
     5    2    3 1
     6    2   32 1
     7    2   33 1
     8    3   11 1
     9    3    4 1
    10    4    9 ar
    11    4    5 ar
    12    5    6 ar
    13    5   24 1
    14    6    7 ar
    15    6   34 1
    16    7    8 ar
    17    8    9 ar
    18    8   18 1
    19    9   10 1
    20   10   11 2
    21   11   12 1
    22   12   16 2
    23   12   13 1
    24   13   14 2
    25   13   17 1
    26   14   15 1
    27   15   16 1
    28   17   35 1
    29   17   36 1
    30   18   22 1
    31   18   19 2
    32   19   20 1
    33   19   37 1
    34   20   21 2
    35   20   38 1
    36   21   22 1
    37   21   39 1
    38   22   23 1
    39   24   25 1
    40   25   26 1
    41   25   40 1
    42   25   41 1
    43   26   27 1
    44   26   42 1
    45   26   43 1
    46   27   28 1
    47   27   44 1
    48   27   45 1
    49   28   46 1
    50   28   47 1
    51   28   48 1
@<TRIPOS>MOLECULE
CHEMBL575741
   54    58     0     0     0
SMALL
USER_CHARGES

@<TRIPOS>ATOM
      1 C1          0.7515    2.0871    0.2816 C.ar      1 <0>        -0.1156
      2 C2          1.9815    2.6949    0.1110 C.ar      1 <0>        -0.1128
      3 C3          3.1248    1.9248    0.0261 C.ar      1 <0>        -0.1038
      4 C4          3.0436    0.5448    0.1112 C.ar      1 <0>        -0.0950
      5 C5          1.8139   -0.0628    0.2817 C.ar      1 <0>        -0.1011
      6 C6          0.6685    0.7112    0.3667 C.ar      1 <0>        -0.1017
      7 C7          1.9897   -1.5649    0.3448 C.3       1 <0>        -0.0860
      8 C8          3.3927   -1.8323   -0.2403 C.3       1 <0>         0.1586
      9 C9          4.1300   -0.5073    0.0483 C.3       1 <0>        -0.0902
     10 N1          4.0407   -2.9499    0.4505 N.pl3     1 <0>        -0.6680
     11 C10         5.0167   -3.6851   -0.1910 C.ar      1 <0>         0.6610
     12 N2          5.3729   -3.3756   -1.4340 N.ar      1 <0>        -0.6477
     13 C11         6.3131   -4.0834   -2.0517 C.ar      1 <0>         0.6597
     14 N3          6.8976   -5.1007   -1.4267 N.ar      1 <0>        -0.6712
     15 C12         6.5416   -5.4102   -0.1840 C.ar      1 <0>         0.6583
     16 N4          5.6046   -4.6992    0.4358 N.ar      1 <0>        -0.6716
     17 N5          7.1484   -6.4665    0.4649 N.pl3     1 <0>        -0.5963
     18 C13         6.7662   -6.8310    1.8379 C.3       1 <0>         0.1050
     19 C14         6.4778   -8.3353    1.8787 C.3       1 <0>        -0.0216
     20 N6          7.6377   -9.0694    1.3573 N.4       1 <0>        -0.5060
     21 C15         7.8395   -8.7441   -0.0603 C.3       1 <0>        -0.0212
     22 C16         8.1914   -7.2636   -0.1992 C.3       1 <0>         0.1040
     23 N7          6.6829   -3.7618   -3.3440 N.pl3     1 <0>        -0.6200
     24 C17         5.9922   -2.7716   -4.0407 C.ar      1 <0>         0.1998
     25 C18         6.6456   -1.9624   -4.9695 C.ar      1 <0>        -0.1992
     26 C19         5.9262   -0.9939   -5.6379 C.ar      1 <0>         0.1238
     27 N8          4.6373   -0.8285   -5.4071 N.ar      1 <0>        -0.4909
     28 C20         3.9834   -1.5739   -4.5361 C.ar      1 <0>         0.1197
     29 C21         4.6288   -2.5682   -3.8311 C.ar      1 <0>        -0.1681
     30 H1         -0.1431    2.6880    0.3527 H         1 <0>         0.1274
     31 H2          2.0482    3.7707    0.0438 H         1 <0>         0.1270
     32 H3          4.0852    2.4003   -0.1075 H         1 <0>         0.1203
     33 H4         -0.2927    0.2372    0.5003 H         1 <0>         0.1222
     34 H5          1.9390   -1.9086    1.3779 H         1 <0>         0.0863
     35 H6          1.2281   -2.0604   -0.2573 H         1 <0>         0.0864
     36 H7          3.3362   -2.0186   -1.3128 H         1 <0>         0.1126
     37 H8          4.8297   -0.2808   -0.7562 H         1 <0>         0.0808
     38 H9          4.6549   -0.5665    1.0017 H         1 <0>         0.0816
     39 H10         3.7837   -3.1732    1.3588 H         1 <0>         0.4188
     40 H11         7.5832   -6.5960    2.5201 H         1 <0>         0.0950
     41 H12         5.8725   -6.2786    2.1282 H         1 <0>         0.1424
     42 H13         6.2866   -8.6409    2.9073 H         1 <0>         0.1483
     43 H14         5.6035   -8.5544    1.2658 H         1 <0>         0.1344
     44 H15         8.4607   -8.8111    1.8808 H         1 <0>         0.4293
     45 H16         8.6516   -9.3510   -0.4604 H         1 <0>         0.1486
     46 H17         6.9239   -8.9509   -0.6145 H         1 <0>         0.1342
     47 H18         8.2394   -6.9971   -1.2550 H         1 <0>         0.1420
     48 H19         9.1547   -7.0731    0.2738 H         1 <0>         0.0946
     49 H20         7.4231   -4.2253   -3.7662 H         1 <0>         0.4293
     50 H21         7.7003   -2.0921   -5.1626 H         1 <0>         0.1385
     51 H22         6.4241   -0.3626   -6.3590 H         1 <0>         0.1622
     52 H23         2.9285   -1.4058   -4.3764 H         1 <0>         0.1582
     53 H24         4.0867   -3.1779   -3.1234 H         1 <0>         0.1434
     54 H25         7.4779  -10.0609    1.4541 H         1 <0>         0.4345
@<TRIPOS>BOND
     1    1    6 ar
     2    1    2 ar
     3    1   30 1
     4    2    3 ar
     5    2   31 1
     6    3    4 ar
     7    3   32 1
     8    4    9 1
     9    4    5 ar
    10    5    6 ar
    11    5    7 1
    12    6   33 1
    13    7    8 1
    14    7   34 1
    15    7   35 1
    16    8    9 1
    17    8   10 1
    18    8   36 1
    19    9   37 1
    20    9   38 1
    21   10   11 1
    22   10   39 1
    23   11   16 ar
    24   11   12 ar
    25   12   13 ar
    26   13   14 ar
    27   13   23 1
    28   14   15 ar
    29   15   16 ar
    30   15   17 1
    31   17   22 1
    32   17   18 1
    33   18   19 1
    34   18   40 1
    35   18   41 1
    36   19   20 1
    37   19   42 1
    38   19   43 1
    39   20   21 1
    40   20   44 1
    41   20   54 1
    42   21   22 1
    43   21   45 1
    44   21   46 1
    45   22   47 1
    46   22   48 1
    47   23   24 1
    48   23   49 1
    49   24   29 ar
    50   24   25 ar
    51   25   26 ar
    52   25   50 1
    53   26   27 ar
    54   26   51 1
    55   27   28 ar
    56   28   29 ar
    57   28   52 1
    58   29   53 1
@<TRIPOS>MOLECULE
CHEMBL520640
   50    53     0     0     0
SMALL
USER_CHARGES

@<TRIPOS>ATOM
      1 C1         -0.1789    2.3156    0.5052 C.3       1 <0>        -0.1794
      2 C2          0.2096    0.8472    0.3216 C.3       1 <0>         0.1672
      3 C3         -1.0346    0.0312    0.1141 C.2       1 <0>        -0.2335
      4 C4         -1.1982   -1.1528    0.7324 C.2       1 <0>         0.1642
      5 N1         -0.2207   -1.6205    1.5732 N.pl3     1 <0>        -0.6093
      6 C5          0.7360   -0.7508    2.0568 C.cat     1 <0>         0.5878
      7 N2          0.9464    0.3976    1.4964 N.pl3     1 <0>        -0.5856
      8 C6          1.5364   -1.1379    3.2386 C.ar      1 <0>        -0.2016
      9 C7          2.0113   -0.1590    4.1131 C.ar      1 <0>        -0.0212
     10 C8          2.7567   -0.5234    5.2131 C.ar      1 <0>        -0.1462
     11 C9          3.0358   -1.8632    5.4524 C.ar      1 <0>         0.2026
     12 C10         2.5649   -2.8401    4.5841 C.ar      1 <0>        -0.2083
     13 C11         1.8140   -2.4835    3.4852 C.ar      1 <0>        -0.0102
     14 O1          3.7711   -2.2185    6.5371 O.3       1 <0>        -0.2964
     15 C12         4.0207   -3.6132    6.7229 C.3       1 <0>         0.0157
     16 C13        -2.4495   -1.9606    0.5026 C.3       1 <0>        -0.1412
     17 C14        -2.0506    0.5155   -0.7448 C.2       1 <0>         0.5757
     18 O2         -1.8700    0.5392   -1.9488 O.2       1 <0>        -0.4913
     19 N3         -3.2178    0.9502   -0.2298 N.am      1 <0>        -0.6603
     20 C15        -4.1624    1.5677   -1.0592 C.ar      1 <0>         0.0876
     21 C16        -4.3631    1.0933   -2.3562 C.ar      1 <0>        -0.0632
     22 C17        -5.2786    1.6809   -3.1803 C.ar      1 <0>        -0.1218
     23 C18        -6.0262    2.7673   -2.7318 C.ar      1 <0>         0.1283
     24 C19        -5.8320    3.2541   -1.4251 C.ar      1 <0>        -0.1665
     25 C20        -4.8943    2.6390   -0.5877 C.ar      1 <0>        -0.0537
     26 C21        -6.7499    4.3772   -1.2645 C.2       1 <0>         0.0768
     27 N4         -7.4075    4.5168   -2.3801 N.2       1 <0>        -0.2384
     28 N5         -6.9953    3.5518   -3.3047 N.pl3     1 <0>        -0.5057
     29 H1         -7.3391    3.4531   -4.2063 H         1 <0>         0.4441
     30 H2          0.7129    2.9026    0.7250 H         1 <0>         0.0877
     31 H3         -0.6414    2.6862   -0.4096 H         1 <0>         0.1009
     32 H4         -0.8848    2.4042    1.3310 H         1 <0>         0.0780
     33 H5          0.8475    0.7539   -0.5573 H         1 <0>         0.1334
     34 H6         -0.2019   -2.5566    1.8268 H         1 <0>         0.4496
     35 H7          1.7950    0.8827    3.9275 H         1 <0>         0.1449
     36 H8          3.1247    0.2335    5.8900 H         1 <0>         0.1580
     37 H9          2.7837   -3.8807    4.7731 H         1 <0>         0.1542
     38 H10         1.4444   -3.2439    2.8131 H         1 <0>         0.1413
     39 H11         4.6173   -3.7587    7.6235 H         1 <0>         0.1167
     40 H12         3.0729   -4.1415    6.8257 H         1 <0>         0.0679
     41 H13         4.5625   -4.0033    5.8613 H         1 <0>         0.0681
     42 H14        -2.2835   -2.6633   -0.3140 H         1 <0>         0.1088
     43 H15        -2.6988   -2.5105    1.4101 H         1 <0>         0.0986
     44 H16        -3.2713   -1.2923    0.2454 H         1 <0>         0.1043
     45 H17        -3.4036    0.8354    0.7153 H         1 <0>         0.4104
     46 H18        -3.7871    0.2519   -2.7119 H         1 <0>         0.1438
     47 H19        -5.4235    1.3032   -4.1817 H         1 <0>         0.1344
     48 H20        -4.7413    3.0025    0.4177 H         1 <0>         0.1338
     49 H21        -6.8636    4.9844   -0.3786 H         1 <0>         0.2006
     50 H22         1.6221    0.9825    1.8736 H         1 <0>         0.4485
@<TRIPOS>BOND
     1    1    2 1
     2    1   30 1
     3    1   31 1
     4    1   32 1
     5    2    7 1
     6    2    3 1
     7    2   33 1
     8    3    4 2
     9    3   17 1
    10    4    5 1
    11    4   16 1
    12    5    6 1
    13    5   34 1
    14    6    7 2
    15    6    8 1
    16    7   50 1
    17    8   13 ar
    18    8    9 ar
    19    9   10 ar
    20    9   35 1
    21   10   11 ar
    22   10   36 1
    23   11   12 ar
    24   11   14 1
    25   12   13 ar
    26   12   37 1
    27   13   38 1
    28   14   15 1
    29   15   39 1
    30   15   40 1
    31   15   41 1
    32   16   42 1
    33   16   43 1
    34   16   44 1
    35   17   18 2
    36   17   19 am
    37   19   20 1
    38   19   45 1
    39   20   25 ar
    40   20   21 ar
    41   21   22 ar
    42   21   46 1
    43   22   23 ar
    44   22   47 1
    45   23   28 1
    46   23   24 ar
    47   24   25 ar
    48   24   26 1
    49   25   48 1
    50   26   27 2
    51   26   49 1
    52   27   28 1
    53   28   29 1
@<TRIPOS>MOLECULE
CHEMBL520640__1
   50    53     0     0     0
SMALL
USER_CHARGES

@<TRIPOS>ATOM
      1 C1          0.1517    1.6458    0.0178 C.3       1 <0>        -0.1784
      2 C2          0.1571    0.1245   -0.1449 C.3       1 <0>         0.1535
      3 C3          1.0201   -0.2420   -1.3185 C.2       1 <0>        -0.2654
      4 C4          2.2523   -0.7528   -1.1402 C.2       1 <0>         0.2193
      5 N1          2.7267   -0.9533    0.1310 N.pl3     1 <0>        -0.6114
      6 C5          1.8446   -0.9735    1.1926 C.cat     1 <0>         0.5895
      7 N2          0.6496   -0.4855    1.0841 N.pl3     1 <0>        -0.5847
      8 C6          2.2725   -1.5634    2.4794 C.ar      1 <0>        -0.2033
      9 C7          1.3349   -2.1699    3.3171 C.ar      1 <0>        -0.0205
     10 C8          1.7372   -2.7186    4.5153 C.ar      1 <0>        -0.1463
     11 C9          3.0741   -2.6686    4.8901 C.ar      1 <0>         0.2036
     12 C10         4.0099   -2.0658    4.0589 C.ar      1 <0>        -0.2083
     13 C11         3.6158   -1.5202    2.8566 C.ar      1 <0>        -0.0096
     14 O1          3.4668   -3.2098    6.0717 O.3       1 <0>        -0.2961
     15 C12         4.8561   -3.1236    6.3949 C.3       1 <0>         0.0156
     16 C13         3.1064   -1.1034   -2.3312 C.3       1 <0>        -0.1375
     17 C14         0.5300   -0.0465   -2.6323 C.2       1 <0>         0.5713
     18 O2          1.2634   -0.2225   -3.5883 O.2       1 <0>        -0.5036
     19 N3         -0.7484    0.3345   -2.8249 N.am      1 <0>        -0.6618
     20 C15        -1.2669    0.4156   -4.1234 C.ar      1 <0>         0.0960
     21 C16        -0.8305   -0.4781   -5.1023 C.ar      1 <0>        -0.0644
     22 C17        -1.3232   -0.4159   -6.3736 C.ar      1 <0>        -0.1198
     23 C18        -2.2724    0.5470   -6.7083 C.ar      1 <0>         0.1253
     24 C19        -2.7198    1.4536   -5.7286 C.ar      1 <0>        -0.1638
     25 C20        -2.2113    1.3755   -4.4270 C.ar      1 <0>        -0.0592
     26 C21        -3.6952    2.3188   -6.3844 C.2       1 <0>         0.0764
     27 N4         -3.7937    1.9383   -7.6261 N.2       1 <0>        -0.2387
     28 N5         -2.9400    0.8568   -7.8664 N.pl3     1 <0>        -0.5061
     29 H1         -2.8362    0.3995   -8.7155 H         1 <0>         0.4438
     30 H2          1.1652    1.9933    0.2187 H         1 <0>         0.0751
     31 H3         -0.2158    2.1079   -0.8985 H         1 <0>         0.0981
     32 H4         -0.4979    1.9201    0.8489 H         1 <0>         0.0869
     33 H5         -0.8609   -0.2182   -0.3305 H         1 <0>         0.1284
     34 H6          3.6763   -1.0804    0.2831 H         1 <0>         0.4511
     35 H7          0.2955   -2.2088    3.0266 H         1 <0>         0.1451
     36 H8          1.0123   -3.1876    5.1641 H         1 <0>         0.1583
     37 H9          5.0483   -2.0288    4.3534 H         1 <0>         0.1545
     38 H10         4.3445   -1.0557    2.2089 H         1 <0>         0.1414
     39 H11         5.0339   -3.5930    7.3624 H         1 <0>         0.1170
     40 H12         5.4396   -3.6357    5.6298 H         1 <0>         0.0682
     41 H13         5.1545   -2.0761    6.4389 H         1 <0>         0.0682
     42 H14         3.6238   -0.2107   -2.6827 H         1 <0>         0.1115
     43 H15         3.8385   -1.8581   -2.0439 H         1 <0>         0.0788
     44 H16         2.4748   -1.4949   -3.1286 H         1 <0>         0.1382
     45 H17        -1.3094    0.5525   -2.0641 H         1 <0>         0.4061
     46 H18        -0.0942   -1.2272   -4.8512 H         1 <0>         0.1404
     47 H19        -0.9763   -1.1140   -7.1211 H         1 <0>         0.1339
     48 H20        -2.5516    2.0638   -3.6675 H         1 <0>         0.1340
     49 H21        -4.2384    3.1299   -5.9224 H         1 <0>         0.2007
     50 H22         0.0585   -0.5273    1.8520 H         1 <0>         0.4487
@<TRIPOS>BOND
     1    1    2 1
     2    1   30 1
     3    1   31 1
     4    1   32 1
     5    2    7 1
     6    2    3 1
     7    2   33 1
     8    3    4 2
     9    3   17 1
    10    4    5 1
    11    4   16 1
    12    5    6 1
    13    5   34 1
    14    6    7 2
    15    6    8 1
    16    7   50 1
    17    8   13 ar
    18    8    9 ar
    19    9   10 ar
    20    9   35 1
    21   10   11 ar
    22   10   36 1
    23   11   12 ar
    24   11   14 1
    25   12   13 ar
    26   12   37 1
    27   13   38 1
    28   14   15 1
    29   15   39 1
    30   15   40 1
    31   15   41 1
    32   16   42 1
    33   16   43 1
    34   16   44 1
    35   17   18 2
    36   17   19 am
    37   19   20 1
    38   19   45 1
    39   20   25 ar
    40   20   21 ar
    41   21   22 ar
    42   21   46 1
    43   22   23 ar
    44   22   47 1
    45   23   28 1
    46   23   24 ar
    47   24   25 ar
    48   24   26 1
    49   25   48 1
    50   26   27 2
    51   26   49 1
    52   27   28 1
    53   28   29 1
@<TRIPOS>MOLECULE
CHEMBL604934
   50    54     0     0     0
SMALL
USER_CHARGES

@<TRIPOS>ATOM
      1 C1         -1.2510   -3.6157    0.2387 C.2       1 <0>        -0.1806
      2 C2         -0.3009   -4.5628    0.3123 C.2       1 <0>         0.0566
      3 N1          0.9350   -3.9778    0.3775 N.pl3     1 <0>        -0.5810
      4 H1          1.7756   -4.4582    0.4363 H         1 <0>         0.4230
      5 C3          0.8093   -2.6093    0.3468 C.ar      1 <0>         0.2869
      6 C4         -0.5660   -2.3252    0.2586 C.ar      1 <0>        -0.1266
      7 C5         -0.9916   -0.9846    0.2106 C.ar      1 <0>         0.0507
      8 C6         -0.0140    0.0104    0.2536 C.ar      1 <0>        -0.1875
      9 C7          1.3173   -0.3539    0.3405 C.ar      1 <0>         0.1464
     10 N2          1.6886   -1.6166    0.3839 N.ar      1 <0>        -0.4929
     11 C8         -2.4289   -0.6413    0.1171 C.ar      1 <0>         0.0594
     12 C9         -2.8308    0.6897    0.1723 C.ar      1 <0>         0.1420
     13 N3         -4.1136    1.0000    0.0891 N.ar      1 <0>        -0.4932
     14 C10        -5.0209    0.0443   -0.0476 C.ar      1 <0>         0.3927
     15 C11        -4.6202   -1.2994   -0.1042 C.ar      1 <0>         0.2463
     16 N4         -3.3368   -1.6075   -0.0255 N.ar      1 <0>        -0.3874
     17 N5         -5.5712   -2.3052   -0.2478 N.pl3     1 <0>        -0.6466
     18 C12        -5.9639   -2.7903   -1.5799 C.3       1 <0>         0.1142
     19 C13        -5.8725   -4.3198   -1.5862 C.3       1 <0>        -0.0238
     20 N6         -6.6756   -4.8618   -0.4829 N.4       1 <0>        -0.5018
     21 C14        -6.1089   -4.4375    0.8036 C.3       1 <0>        -0.0241
     22 C15        -6.2079   -2.9177    0.9285 C.3       1 <0>         0.1081
     23 N7         -6.3692    0.3724   -0.1344 N.pl3     1 <0>        -0.5936
     24 C16        -7.4857   -0.5841   -0.1321 C.3       1 <0>         0.1089
     25 C17        -8.7882    0.2316   -0.2725 C.3       1 <0>        -0.1409
     26 C18        -8.3005    1.5572   -0.9146 C.3       1 <0>        -0.1351
     27 C19        -6.9164    1.7374   -0.2377 C.3       1 <0>         0.1106
     28 H2         -2.3168   -3.7773    0.1727 H         1 <0>         0.1498
     29 H3         -0.4848   -5.6270    0.3190 H         1 <0>         0.1753
     30 H4         -0.2939    1.0529    0.2190 H         1 <0>         0.1430
     31 H5          2.0724    0.4176    0.3733 H         1 <0>         0.1688
     32 H6         -2.0936    1.4710    0.2837 H         1 <0>         0.1792
     33 H7         -6.9877   -2.4837   -1.7943 H         1 <0>         0.0886
     34 H8         -5.2904   -2.3800   -2.3323 H         1 <0>         0.1153
     35 H9         -6.2515   -4.7027   -2.5338 H         1 <0>         0.1407
     36 H10        -4.8328   -4.6223   -1.4617 H         1 <0>         0.1365
     37 H11        -7.6229   -4.5228   -0.5599 H         1 <0>         0.4261
     38 H12        -6.6621   -4.9070    1.6170 H         1 <0>         0.1411
     39 H13        -5.0620   -4.7364    0.8558 H         1 <0>         0.1356
     40 H14        -5.6956   -2.5916    1.8337 H         1 <0>         0.1151
     41 H15        -7.2567   -2.6241    0.9717 H         1 <0>         0.0914
     42 H16        -7.3865   -1.2717   -0.9720 H         1 <0>         0.0728
     43 H17        -7.4957   -1.1400    0.8055 H         1 <0>         0.0687
     44 H18        -9.4936   -0.2781   -0.9288 H         1 <0>         0.0851
     45 H19        -9.2340    0.4175    0.7046 H         1 <0>         0.0804
     46 H20        -8.2002    1.4542   -1.9951 H         1 <0>         0.0779
     47 H21        -8.9671    2.3819   -0.6625 H         1 <0>         0.0909
     48 H22        -7.0305    2.1763    0.7535 H         1 <0>         0.0712
     49 H23        -6.2699    2.3595   -0.8567 H         1 <0>         0.0827
     50 H24        -6.6765   -5.8695   -0.5326 H         1 <0>         0.4328
@<TRIPOS>BOND
     1    1    6 1
     2    1    2 2
     3    1   28 1
     4    2    3 1
     5    2   29 1
     6    3    4 1
     7    3    5 1
     8    5   10 ar
     9    5    6 ar
    10    6    7 ar
    11    7    8 ar
    12    7   11 1
    13    8    9 ar
    14    8   30 1
    15    9   10 ar
    16    9   31 1
    17   11   16 ar
    18   11   12 ar
    19   12   13 ar
    20   12   32 1
    21   13   14 ar
    22   14   15 ar
    23   14   23 1
    24   15   16 ar
    25   15   17 1
    26   17   22 1
    27   17   18 1
    28   18   19 1
    29   18   33 1
    30   18   34 1
    31   19   20 1
    32   19   35 1
    33   19   36 1
    34   20   21 1
    35   20   37 1
    36   20   50 1
    37   21   22 1
    38   21   38 1
    39   21   39 1
    40   22   40 1
    41   22   41 1
    42   23   27 1
    43   23   24 1
    44   24   25 1
    45   24   42 1
    46   24   43 1
    47   25   26 1
    48   25   44 1
    49   25   45 1
    50   26   27 1
    51   26   46 1
    52   26   47 1
    53   27   48 1
    54   27   49 1
@<TRIPOS>MOLECULE
CHEMBL598963
   53    57     0     0     0
SMALL
USER_CHARGES

@<TRIPOS>ATOM
      1 C1         -1.1472   -3.5420   -0.0741 C.2       1 <0>        -0.1859
      2 C2         -0.1670   -4.4604   -0.1080 C.2       1 <0>         0.0577
      3 N1          1.0528   -3.8392   -0.1040 N.pl3     1 <0>        -0.5801
      4 H1          1.9091   -4.2944   -0.1248 H         1 <0>         0.4236
      5 C3          0.8855   -2.4753   -0.0666 C.ar      1 <0>         0.2877
      6 C4         -0.5003   -2.2320   -0.0464 C.ar      1 <0>        -0.1270
      7 C5         -0.9671   -0.9050   -0.0065 C.ar      1 <0>         0.0536
      8 C6         -0.0182    0.1183    0.0111 C.ar      1 <0>        -0.1872
      9 C7          1.3259   -0.2064   -0.0109 C.ar      1 <0>         0.1485
     10 N2          1.7359   -1.4573   -0.0481 N.ar      1 <0>        -0.4935
     11 C8         -2.4167   -0.6044    0.0154 C.ar      1 <0>         0.0549
     12 C9         -2.8523    0.7095    0.1569 C.ar      1 <0>         0.1414
     13 N3         -4.1463    0.9817    0.1769 N.ar      1 <0>        -0.4944
     14 C10        -5.0328    0.0039    0.0618 C.ar      1 <0>         0.3932
     15 C11        -4.5982   -1.3227   -0.0816 C.ar      1 <0>         0.2418
     16 N4         -3.3040   -1.5925   -0.1060 N.ar      1 <0>        -0.3957
     17 N5         -5.5273   -2.3516   -0.2027 N.pl3     1 <0>        -0.6434
     18 C12        -5.8998   -2.8192   -1.5532 C.3       1 <0>         0.1274
     19 C13        -6.0063   -4.3544   -1.5978 C.3       1 <0>        -0.1584
     20 C14        -4.8905   -4.9605   -0.7757 C.3       1 <0>        -0.0104
     21 N6         -5.3707   -5.2064    0.5823 N.4       1 <0>        -0.4825
     22 C15        -5.2278   -4.1175    1.4707 C.3       1 <0>        -0.0585
     23 C16        -6.0900   -2.9295    1.0003 C.3       1 <0>         0.1241
     24 N7         -6.3928    0.2919    0.0835 N.pl3     1 <0>        -0.5923
     25 C17        -7.4783   -0.6995    0.1013 C.3       1 <0>         0.1093
     26 C18        -8.8104    0.0797    0.0961 C.3       1 <0>        -0.1401
     27 C19        -8.4058    1.4558   -0.4954 C.3       1 <0>        -0.1352
     28 C20        -6.9850    1.6418    0.0990 C.3       1 <0>         0.1107
     29 H2         -2.2098   -3.7349   -0.0725 H         1 <0>         0.1441
     30 H3         -0.3189   -5.5293   -0.1345 H         1 <0>         0.1746
     31 H4         -0.3301    1.1518    0.0412 H         1 <0>         0.1435
     32 H5          2.0587    0.5869    0.0024 H         1 <0>         0.1691
     33 H6         -2.1320    1.5088    0.2510 H         1 <0>         0.1776
     34 H7         -6.8610   -2.3858   -1.8294 H         1 <0>         0.0771
     35 H8         -5.1429   -2.4924   -2.2663 H         1 <0>         0.0866
     36 H9         -6.9682   -4.6640   -1.1891 H         1 <0>         0.0880
     37 H10        -5.9233   -4.6947   -2.6300 H         1 <0>         0.1198
     38 H11        -4.5761   -5.9017   -1.2266 H         1 <0>         0.1341
     39 H12        -4.0463   -4.2716   -0.7440 H         1 <0>         0.1418
     40 H13        -6.3481   -5.4522    0.5346 H         1 <0>         0.4194
     41 H14        -5.5438   -4.4218    2.4685 H         1 <0>         0.1392
     42 H15        -4.1817   -3.8128    1.5031 H         1 <0>         0.1336
     43 H16        -6.1184   -2.1745    1.7860 H         1 <0>         0.1080
     44 H17        -7.1029   -3.2766    0.7961 H         1 <0>         0.0968
     45 H18        -7.4161   -1.3332   -0.7833 H         1 <0>         0.0777
     46 H19        -7.4090   -1.3090    1.0023 H         1 <0>         0.0663
     47 H20        -9.5434   -0.4139   -0.5421 H         1 <0>         0.0857
     48 H21        -9.1946    0.1936    1.1098 H         1 <0>         0.0792
     49 H22        -8.3757    1.4194   -1.5844 H         1 <0>         0.0780
     50 H23        -9.0776    2.2420   -0.1508 H         1 <0>         0.0904
     51 H24        -7.0448    2.0182    1.1202 H         1 <0>         0.0708
     52 H25        -6.4001    2.3199   -0.5225 H         1 <0>         0.0823
     53 H26        -4.8663   -5.9942    0.9605 H         1 <0>         0.4267
@<TRIPOS>BOND
     1    1    6 1
     2    1    2 2
     3    1   29 1
     4    2    3 1
     5    2   30 1
     6    3    4 1
     7    3    5 1
     8    5   10 ar
     9    5    6 ar
    10    6    7 ar
    11    7    8 ar
    12    7   11 1
    13    8    9 ar
    14    8   31 1
    15    9   10 ar
    16    9   32 1
    17   11   16 ar
    18   11   12 ar
    19   12   13 ar
    20   12   33 1
    21   13   14 ar
    22   14   15 ar
    23   14   24 1
    24   15   16 ar
    25   15   17 1
    26   17   23 1
    27   17   18 1
    28   18   19 1
    29   18   34 1
    30   18   35 1
    31   19   20 1
    32   19   36 1
    33   19   37 1
    34   20   21 1
    35   20   38 1
    36   20   39 1
    37   21   22 1
    38   21   40 1
    39   21   53 1
    40   22   23 1
    41   22   41 1
    42   22   42 1
    43   23   43 1
    44   23   44 1
    45   24   28 1
    46   24   25 1
    47   25   26 1
    48   25   45 1
    49   25   46 1
    50   26   27 1
    51   26   47 1
    52   26   48 1
    53   27   28 1
    54   27   49 1
    55   27   50 1
    56   28   51 1
    57   28   52 1
@<TRIPOS>MOLECULE
CHEMBL574507
   42    44     0     0     0
SMALL
USER_CHARGES

@<TRIPOS>ATOM
      1 C1          3.5258   -4.1463    2.9375 C.ar      1 <0>        -0.1607
      2 C2          3.4375   -5.5081    2.7479 C.ar      1 <0>         0.0110
      3 C3          2.6581   -6.0045    1.7036 C.ar      1 <0>        -0.1738
      4 C4          1.9705   -5.1057    0.8554 C.ar      1 <0>         0.0999
      5 C5          1.1609   -5.6581   -0.2321 C.2       1 <0>        -0.2601
      6 C6          1.0933   -6.9895   -0.3938 C.2       1 <0>         0.1611
      7 N1          1.7556   -7.8606    0.4229 N.am      1 <0>        -0.6328
      8 H1          1.6706   -8.8128    0.2589 H         1 <0>         0.4228
      9 C7          2.5236   -7.4429    1.4487 C.2       1 <0>         0.5474
     10 O1          3.0989   -8.2503    2.1561 O.2       1 <0>        -0.5097
     11 C8          2.0786   -3.7317    1.0716 C.ar      1 <0>        -0.6574
     12 C9          2.8487   -3.2678    2.1018 C.ar      1 <0>         0.0290
     13 S1          1.2279   -2.6002    0.0224 S.o2      1 <0>         2.5075
     14 O2         -0.1093   -3.0791   -0.0188 O.2       1 <0>        -0.9152
     15 O3          1.5218   -1.3174    0.5586 O.2       1 <0>        -0.9269
     16 C10         2.0108   -2.7925   -1.6026 C.3       1 <0>        -0.4405
     17 N2          3.4174   -2.3771   -1.5207 N.3       1 <0>        -0.5211
     18 C11         3.5369   -0.8992   -1.5376 C.3       1 <0>         0.0143
     19 C12         4.8360   -0.5170   -0.8751 C.3       1 <0>        -0.1434
     20 C13         5.9925   -0.3764   -1.8779 C.3       1 <0>        -0.0099
     21 N3          5.9932   -1.4454   -2.9017 N.4       1 <0>        -0.5070
     22 C14         5.6923   -2.7419   -2.3388 C.3       1 <0>        -0.0158
     23 C15         4.1846   -3.0092   -2.5041 C.3       1 <0>         0.0402
     24 H2          4.1248   -3.7578    3.7478 H         1 <0>         0.1432
     25 H3          3.9674   -6.1848    3.4018 H         1 <0>         0.1474
     26 H4          0.6223   -5.0006   -0.8984 H         1 <0>         0.1521
     27 H5          0.4927   -7.3858   -1.1991 H         1 <0>         0.1722
     28 H6          2.9315   -2.2039    2.2679 H         1 <0>         0.1500
     29 H7          1.9576   -3.8368   -1.9102 H         1 <0>         0.1521
     30 H8          1.4906   -2.1719   -2.3322 H         1 <0>         0.1242
     31 H9          3.5325   -0.5431   -2.5678 H         1 <0>         0.0557
     32 H10         2.7034   -0.4581   -0.9910 H         1 <0>         0.1279
     33 H11         4.7013    0.4328   -0.3575 H         1 <0>         0.1228
     34 H12         5.0960   -1.2811   -0.1426 H         1 <0>         0.1056
     35 H13         5.9101    0.5890   -2.3771 H         1 <0>         0.1322
     36 H14         6.9363   -0.4096   -1.3337 H         1 <0>         0.1342
     37 H15         5.3036   -1.2257   -3.6048 H         1 <0>         0.4223
     38 H16         6.2601   -3.5099   -2.8640 H         1 <0>         0.1443
     39 H17         5.9517   -2.7506   -1.2801 H         1 <0>         0.1455
     40 H18         4.0092   -4.0837   -2.4516 H         1 <0>         0.1224
     41 H19         3.8682   -2.6497   -3.4833 H         1 <0>         0.0537
     42 H20         6.9026   -1.4808   -3.3374 H         1 <0>         0.4333
@<TRIPOS>BOND
     1    1   12 ar
     2    1    2 ar
     3    1   24 1
     4    2    3 ar
     5    2   25 1
     6    3    9 1
     7    3    4 ar
     8    4    5 1
     9    4   11 ar
    10    5    6 2
    11    5   26 1
    12    6    7 1
    13    6   27 1
    14    7    8 1
    15    7    9 am
    16    9   10 2
    17   11   12 ar
    18   11   13 1
    19   12   28 1
    20   13   14 2
    21   13   15 2
    22   13   16 1
    23   16   17 1
    24   16   29 1
    25   16   30 1
    26   17   23 1
    27   17   18 1
    28   18   19 1
    29   18   31 1
    30   18   32 1
    31   19   20 1
    32   19   33 1
    33   19   34 1
    34   20   21 1
    35   20   35 1
    36   20   36 1
    37   21   22 1
    38   21   37 1
    39   21   42 1
    40   22   23 1
    41   22   38 1
    42   22   39 1
    43   23   40 1
    44   23   41 1
@<TRIPOS>MOLECULE
CHEMBL220465
   60    64     0     0     0
SMALL
USER_CHARGES

@<TRIPOS>ATOM
      1 C1         -2.3914    2.5659    0.0699 C.3       1 <0>        -0.1686
      2 C2         -1.0458    1.9945   -0.3814 C.3       1 <0>         0.0960
      3 N1         -0.7821    2.3998   -1.7642 N.pl3     1 <0>        -0.4596
      4 C3         -1.1497    1.7161   -2.8988 C.ar      1 <0>         0.1330
      5 C4         -1.8251    0.5304   -3.1561 C.ar      1 <0>        -0.1856
      6 C5         -2.0176    0.1444   -4.4719 C.ar      1 <0>         0.3334
      7 N2         -1.5695    0.8854   -5.4769 N.ar      1 <0>        -0.5156
      8 C6         -0.9240    2.0165   -5.2846 C.ar      1 <0>         0.2346
      9 C7         -0.6857    2.4813   -3.9899 C.ar      1 <0>        -0.0330
     10 N3         -0.0704    3.5723   -3.4769 N.2       1 <0>        -0.4321
     11 C8         -0.1278    3.5352   -2.1687 C.2       1 <0>         0.3217
     12 C9          0.4331    4.5619   -1.2632 C.2       1 <0>         0.1390
     13 C10         1.1311    5.7857   -1.6770 C.2       1 <0>         0.3642
     14 N4          1.4788    6.4417   -0.6044 N.2       1 <0>        -0.3506
     15 O1          1.0394    5.7026    0.5212 O.3       1 <0>         0.0418
     16 N5          0.3877    4.5387    0.0441 N.2       1 <0>        -0.2503
     17 N6          1.3790    6.1774   -2.9860 N.pl3     1 <0>        -0.8013
     18 O2         -2.6758   -1.0125   -4.7381 O.3       1 <0>        -0.2405
     19 C11        -2.9394   -1.3122   -6.0370 C.ar      1 <0>         0.1085
     20 C12        -1.9226   -1.7688   -6.8647 C.ar      1 <0>        -0.1225
     21 C13        -2.1891   -2.0735   -8.1857 C.ar      1 <0>        -0.0874
     22 C14        -3.4678   -1.9248   -8.6874 C.ar      1 <0>        -0.1390
     23 C15        -4.4893   -1.4688   -7.8639 C.ar      1 <0>         0.1591
     24 C16        -4.2248   -1.1676   -6.5349 C.ar      1 <0>        -0.1174
     25 N7         -5.7836   -1.3178   -8.3718 N.am      1 <0>        -0.6729
     26 C17        -6.5654   -0.3103   -7.9358 C.2       1 <0>         0.5670
     27 O3         -6.1779    0.4166   -7.0412 O.2       1 <0>        -0.5220
     28 C18        -7.8909   -0.0894   -8.5436 C.ar      1 <0>        -0.2055
     29 C19        -8.3403   -0.9277   -9.5683 C.ar      1 <0>        -0.0314
     30 C20        -9.5775   -0.7189  -10.1333 C.ar      1 <0>        -0.2086
     31 C21       -10.3813    0.3261   -9.6860 C.ar      1 <0>         0.2462
     32 C22        -9.9367    1.1627   -8.6659 C.ar      1 <0>        -0.2097
     33 C23        -8.7031    0.9553   -8.0924 C.ar      1 <0>        -0.0021
     34 N8        -11.6306    0.5350  -10.2597 N.pl3     1 <0>        -0.6281
     35 C24       -12.0997   -0.3440  -11.3337 C.3       1 <0>         0.0865
     36 C25       -12.4777    1.6342   -9.7902 C.3       1 <0>         0.0859
     37 H1         -2.3629    3.6538    0.0093 H         1 <0>         0.0635
     38 H2         -3.1825    2.1866   -0.5770 H         1 <0>         0.0652
     39 H3         -2.5876    2.2642    1.0988 H         1 <0>         0.0862
     40 H4         -0.2547    2.3737    0.2655 H         1 <0>         0.1085
     41 H5         -1.0743    0.9065   -0.3208 H         1 <0>         0.1010
     42 H6         -2.1933   -0.0798   -2.3447 H         1 <0>         0.1470
     43 H7         -0.5768    2.5878   -6.1328 H         1 <0>         0.1784
     44 H8          1.0813    5.6217   -3.7232 H         1 <0>         0.4311
     45 H9          1.8499    7.0068   -3.1631 H         1 <0>         0.4187
     46 H10        -0.9220   -1.8857   -6.4755 H         1 <0>         0.1276
     47 H11        -1.3962   -2.4281   -8.8275 H         1 <0>         0.1345
     48 H12        -3.6733   -2.1630   -9.7206 H         1 <0>         0.1308
     49 H13        -5.0181   -0.8171   -5.8913 H         1 <0>         0.1461
     50 H14        -6.1186   -1.9383   -9.0379 H         1 <0>         0.4110
     51 H15        -7.7169   -1.7381   -9.9162 H         1 <0>         0.1244
     52 H16        -9.9252   -1.3661  -10.9249 H         1 <0>         0.1305
     53 H17       -10.5626    1.9725   -8.3210 H         1 <0>         0.1310
     54 H18        -8.3608    1.6017   -7.2977 H         1 <0>         0.1358
     55 H19       -12.6405   -1.1868  -10.9032 H         1 <0>         0.0539
     56 H20       -12.7626    0.2130  -11.9957 H         1 <0>         0.0710
     57 H21       -11.2451   -0.7124  -11.9011 H         1 <0>         0.0725
     58 H22       -12.2633    2.5316  -10.3706 H         1 <0>         0.0543
     59 H23       -13.5262    1.3633   -9.9140 H         1 <0>         0.0711
     60 H24       -12.2738    1.8256   -8.7367 H         1 <0>         0.0730
@<TRIPOS>BOND
     1    1    2 1
     2    1   37 1
     3    1   38 1
     4    1   39 1
     5    2    3 1
     6    2   40 1
     7    2   41 1
     8    3   11 1
     9    3    4 1
    10    4    9 ar
    11    4    5 ar
    12    5    6 ar
    13    5   42 1
    14    6    7 ar
    15    6   18 1
    16    7    8 ar
    17    8    9 ar
    18    8   43 1
    19    9   10 1
    20   10   11 2
    21   11   12 1
    22   12   16 2
    23   12   13 1
    24   13   14 2
    25   13   17 1
    26   14   15 1
    27   15   16 1
    28   17   44 1
    29   17   45 1
    30   18   19 1
    31   19   24 ar
    32   19   20 ar
    33   20   21 ar
    34   20   46 1
    35   21   22 ar
    36   21   47 1
    37   22   23 ar
    38   22   48 1
    39   23   24 ar
    40   23   25 1
    41   24   49 1
    42   25   26 am
    43   25   50 1
    44   26   27 2
    45   26   28 1
    46   28   33 ar
    47   28   29 ar
    48   29   30 ar
    49   29   51 1
    50   30   31 ar
    51   30   52 1
    52   31   32 ar
    53   31   34 1
    54   32   33 ar
    55   32   53 1
    56   33   54 1
    57   34   35 1
    58   34   36 1
    59   35   55 1
    60   35   56 1
    61   35   57 1
    62   36   58 1
    63   36   59 1
    64   36   60 1
@<TRIPOS>MOLECULE
CHEMBL494662
   47    50     0     0     0
SMALL
USER_CHARGES

@<TRIPOS>ATOM
      1 C1          0.0556    1.0348    0.3304 C.3       1 <0>        -0.1581
      2 C2         -0.0620   -0.4778    0.1327 C.3       1 <0>         0.1020
      3 N1          0.6351   -0.8654   -1.0961 N.pl3     1 <0>        -0.4489
      4 C3          0.0722   -1.0191   -2.3342 C.ar      1 <0>         0.1361
      5 C4         -1.2228   -0.8875   -2.8615 C.ar      1 <0>        -0.1904
      6 C5         -1.4167   -1.1352   -4.2194 C.ar      1 <0>         0.1538
      7 N2         -0.4105   -1.4863   -4.9976 N.ar      1 <0>        -0.4831
      8 C6          0.8205   -1.6224   -4.5489 C.ar      1 <0>         0.2254
      9 C7          1.1162   -1.3957   -3.2028 C.ar      1 <0>        -0.0071
     10 N3          2.2475   -1.4521   -2.4621 N.2       1 <0>        -0.4327
     11 C8          1.9734   -1.1355   -1.2205 C.2       1 <0>         0.3366
     12 C9          2.9588   -1.0818   -0.1181 C.2       1 <0>         0.1301
     13 C10         4.3955   -1.3619   -0.2336 C.2       1 <0>         0.3636
     14 N4          4.9379   -1.2136    0.9436 N.2       1 <0>        -0.3434
     15 O1          3.9160   -0.8424    1.8515 O.3       1 <0>         0.0486
     16 N5          2.7012   -0.7709    1.1262 N.2       1 <0>        -0.2467
     17 N6          5.0626   -1.7236   -1.3966 N.pl3     1 <0>        -0.8006
     18 C11        -2.3527   -0.4963   -1.9974 C.2       1 <0>         0.5738
     19 O2         -2.2206    0.4090   -1.1965 O.2       1 <0>        -0.5134
     20 N7         -3.5314   -1.1423   -2.0958 N.am      1 <0>        -0.7227
     21 C12        -4.6535   -0.7538   -1.2377 C.3       1 <0>         0.1345
     22 C13        -4.5458   -1.4800    0.1063 C.3       1 <0>        -0.1645
     23 C14        -5.7619   -1.1315    0.9671 C.3       1 <0>        -0.0031
     24 N8         -6.9890   -1.5512    0.2795 N.4       1 <0>        -0.5070
     25 C15        -7.1357   -0.8061   -0.9767 C.3       1 <0>        -0.0017
     26 C16        -5.9724   -1.1421   -1.9122 C.3       1 <0>        -0.1588
     27 H1          1.1074    1.3105    0.4070 H         1 <0>         0.0577
     28 H2         -0.3937    1.5483   -0.5196 H         1 <0>         0.0761
     29 H3         -0.4631    1.3231    1.2447 H         1 <0>         0.0804
     30 H4          0.3873   -0.9914    0.9827 H         1 <0>         0.0999
     31 H5         -1.1138   -0.7535    0.0561 H         1 <0>         0.0988
     32 H6         -2.4062   -1.0386   -4.6412 H         1 <0>         0.1703
     33 H7          1.6085   -1.9120   -5.2283 H         1 <0>         0.1826
     34 H8          4.5731   -1.8103   -2.2295 H         1 <0>         0.4303
     35 H9          6.0181   -1.8896   -1.3760 H         1 <0>         0.4214
     36 H10        -3.6369   -1.8645   -2.7347 H         1 <0>         0.4100
     37 H11        -4.6312    0.3236   -1.0740 H         1 <0>         0.1098
     38 H12        -4.5160   -2.5563   -0.0629 H         1 <0>         0.0927
     39 H13        -3.6359   -1.1660    0.6177 H         1 <0>         0.1149
     40 H14        -5.6883   -1.6467    1.9248 H         1 <0>         0.1381
     41 H15        -5.7906   -0.0550    1.1359 H         1 <0>         0.1351
     42 H16        -6.9403   -2.5390    0.0797 H         1 <0>         0.4288
     43 H17        -8.0763   -1.0812   -1.4539 H         1 <0>         0.1409
     44 H18        -7.1351    0.2634   -0.7664 H         1 <0>         0.1354
     45 H19        -6.0822   -0.5866   -2.8436 H         1 <0>         0.1222
     46 H20        -5.9722   -2.2115   -2.1233 H         1 <0>         0.0968
     47 H21        -7.7847   -1.3688    0.8724 H         1 <0>         0.4355
@<TRIPOS>BOND
     1    1    2 1
     2    1   27 1
     3    1   28 1
     4    1   29 1
     5    2    3 1
     6    2   30 1
     7    2   31 1
     8    3   11 1
     9    3    4 1
    10    4    9 ar
    11    4    5 ar
    12    5    6 ar
    13    5   18 1
    14    6    7 ar
    15    6   32 1
    16    7    8 ar
    17    8    9 ar
    18    8   33 1
    19    9   10 1
    20   10   11 2
    21   11   12 1
    22   12   16 2
    23   12   13 1
    24   13   14 2
    25   13   17 1
    26   14   15 1
    27   15   16 1
    28   17   34 1
    29   17   35 1
    30   18   19 2
    31   18   20 am
    32   20   21 1
    33   20   36 1
    34   21   26 1
    35   21   22 1
    36   21   37 1
    37   22   23 1
    38   22   38 1
    39   22   39 1
    40   23   24 1
    41   23   40 1
    42   23   41 1
    43   24   25 1
    44   24   42 1
    45   24   47 1
    46   25   26 1
    47   25   43 1
    48   25   44 1
    49   26   45 1
    50   26   46 1
@<TRIPOS>MOLECULE
CHEMBL373512
   43    46     0     0     0
SMALL
USER_CHARGES

@<TRIPOS>ATOM
      1 C1         -0.0163    1.3513    0.0095 C.2       1 <0>        -0.1805
      2 C2          1.1833    2.0380    0.0017 C.2       1 <0>        -0.0832
      3 C3          2.3426    1.3358   -0.0131 C.2       1 <0>        -0.2701
      4 S1          1.7535   -0.3495   -0.0166 S.3       1 <0>         0.0932
      5 C4          0.0021   -0.0041    0.0020 C.2       1 <0>        -0.1169
      6 C5          3.7608    1.8454   -0.0244 C.3       1 <0>         0.0967
      7 N1          4.2350    2.0040    1.3569 N.4       1 <0>        -0.3848
      8 C6          3.4452    3.0437    2.0275 C.3       1 <0>        -0.0131
      9 C7          3.8807    3.1565    3.4901 C.3       1 <0>        -0.1399
     10 C8          5.3660    3.5248    3.5478 C.3       1 <0>        -0.1545
     11 C9          6.1729    2.4727    2.7815 C.3       1 <0>         0.1384
     12 C10         5.6525    2.3852    1.3452 C.3       1 <0>        -0.0143
     13 N2          6.0245    1.1703    3.4358 N.pl3     1 <0>        -0.7590
     14 C11         6.8535    0.8285    4.5102 C.ar      1 <0>         0.1603
     15 C12         7.8167    1.7331    4.9592 C.ar      1 <0>        -0.1269
     16 C13         8.6354    1.4189    6.0051 C.ar      1 <0>        -0.0939
     17 C14         8.5166    0.1842    6.6385 C.ar      1 <0>         0.0956
     18 C15         7.5482   -0.7358    6.1943 C.ar      1 <0>        -0.1364
     19 C16         6.7108   -0.3996    5.1243 C.ar      1 <0>        -0.1106
     20 C17         7.6763   -1.9119    7.0488 C.2       1 <0>         0.0656
     21 N3          8.6322   -1.6816    7.9030 N.2       1 <0>        -0.2341
     22 N4          9.1735   -0.4102    7.6870 N.pl3     1 <0>        -0.5073
     23 H1          9.8972   -0.0126    8.1960 H         1 <0>         0.4428
     24 H2         -0.9542    1.8866    0.0258 H         1 <0>         0.1498
     25 H3          1.1967    3.1179    0.0070 H         1 <0>         0.1426
     26 H4         -0.8275   -0.6955    0.0065 H         1 <0>         0.2000
     27 H5          4.3986    1.1333   -0.5480 H         1 <0>         0.1422
     28 H6          3.7967    2.8084   -0.5337 H         1 <0>         0.1479
     29 H7          3.6034    3.9990    1.5271 H         1 <0>         0.1316
     30 H8          2.3881    2.7817    1.9828 H         1 <0>         0.1303
     31 H9          3.2943    3.9302    3.9858 H         1 <0>         0.1118
     32 H10         3.7227    2.2017    3.9916 H         1 <0>         0.0880
     33 H11         5.5169    4.5032    3.0917 H         1 <0>         0.0900
     34 H12         5.6949    3.5510    4.5866 H         1 <0>         0.0988
     35 H13         7.2249    2.7575    2.7708 H         1 <0>         0.1239
     36 H14         6.2249    1.6371    0.7968 H         1 <0>         0.1386
     37 H15         5.7636    3.3545    0.8593 H         1 <0>         0.1454
     38 H16         5.3516    0.5450    3.1244 H         1 <0>         0.3879
     39 H17         7.9156    2.6925    4.4733 H         1 <0>         0.1294
     40 H18         9.3766    2.1286    6.3417 H         1 <0>         0.1316
     41 H19         5.9619   -1.0970    4.7791 H         1 <0>         0.1272
     42 H20         7.0837   -2.8126    6.9846 H         1 <0>         0.1986
     43 H21         4.1266    1.1309    1.8510 H         1 <0>         0.4174
@<TRIPOS>BOND
     1    1    5 2
     2    1    2 1
     3    1   24 1
     4    2    3 2
     5    2   25 1
     6    3    4 1
     7    3    6 1
     8    4    5 1
     9    5   26 1
    10    6    7 1
    11    6   27 1
    12    6   28 1
    13    7   12 1
    14    7    8 1
    15    7   43 1
    16    8    9 1
    17    8   29 1
    18    8   30 1
    19    9   10 1
    20    9   31 1
    21    9   32 1
    22   10   11 1
    23   10   33 1
    24   10   34 1
    25   11   12 1
    26   11   13 1
    27   11   35 1
    28   12   36 1
    29   12   37 1
    30   13   14 1
    31   13   38 1
    32   14   19 ar
    33   14   15 ar
    34   15   16 ar
    35   15   39 1
    36   16   17 ar
    37   16   40 1
    38   17   22 1
    39   17   18 ar
    40   18   19 ar
    41   18   20 1
    42   19   41 1
    43   20   21 2
    44   20   42 1
    45   21   22 1
    46   22   23 1
@<TRIPOS>MOLECULE
CHEMBL373512__1
   42    45     0     0     0
SMALL
USER_CHARGES

@<TRIPOS>ATOM
      1 C1         -0.0163    1.3513    0.0095 C.2       1 <0>        -0.1578
      2 C2          1.1833    2.0380    0.0017 C.2       1 <0>        -0.1568
      3 C3          2.3426    1.3358   -0.0131 C.2       1 <0>        -0.1324
      4 S1          1.7535   -0.3495   -0.0166 S.3       1 <0>         0.0545
      5 C4          0.0021   -0.0041    0.0020 C.2       1 <0>        -0.1768
      6 C5          3.7608    1.8454   -0.0244 C.3       1 <0>         0.1373
      7 N1          4.2350    2.0040    1.3569 N.3       1 <0>        -0.5320
      8 C6          3.4852    3.0573    2.0531 C.3       1 <0>         0.0509
      9 C7          3.9036    3.0954    3.5247 C.3       1 <0>        -0.1115
     10 C8          5.4075    3.3684    3.6158 C.3       1 <0>        -0.1406
     11 C9          6.1628    2.2842    2.8421 C.3       1 <0>         0.1595
     12 C10         5.6789    2.2695    1.3903 C.3       1 <0>         0.0478
     13 N2          5.9084    0.9784    3.4556 N.pl3     1 <0>        -0.7349
     14 C11         6.6816    0.5530    4.5413 C.ar      1 <0>         0.1885
     15 C12         7.6920    1.3922    5.0326 C.ar      1 <0>        -0.1165
     16 C13         8.4711    1.0322    6.0816 C.ar      1 <0>        -0.0654
     17 C14         8.2704   -0.2183    6.7053 C.ar      1 <0>         0.0707
     18 C15         7.2114   -1.1009    6.1924 C.ar      1 <0>        -0.1536
     19 C16         6.4314   -0.6642    5.0996 C.ar      1 <0>        -0.1605
     20 C17         7.2367   -2.2391    6.9762 C.2       1 <0>         0.0492
     21 N3          8.2094   -2.0903    7.8878 N.pl3     1 <0>        -0.4279
     22 N4          8.8380   -0.8516    7.7166 N.2       1 <0>        -0.2998
     23 H1          8.4423   -2.7441    8.5654 H         1 <0>         0.4420
     24 H2         -0.9542    1.8866    0.0258 H         1 <0>         0.1318
     25 H3          1.1967    3.1179    0.0070 H         1 <0>         0.1285
     26 H4         -0.8275   -0.6955    0.0065 H         1 <0>         0.1843
     27 H5          4.3986    1.1333   -0.5480 H         1 <0>         0.0914
     28 H6          3.7967    2.8084   -0.5337 H         1 <0>         0.0592
     29 H7          3.6976    4.0209    1.5901 H         1 <0>         0.0341
     30 H8          2.4175    2.8489    1.9844 H         1 <0>         0.0798
     31 H9          3.3582    3.8876    4.0376 H         1 <0>         0.0651
     32 H10         3.6788    2.1366    3.9919 H         1 <0>         0.0738
     33 H11         5.6274    4.3445    3.1835 H         1 <0>         0.0654
     34 H12         5.7178    3.3534    4.6606 H         1 <0>         0.0701
     35 H13         7.2315    2.4967    2.8674 H         1 <0>         0.0823
     36 H14         6.2045    1.4890    0.8402 H         1 <0>         0.0842
     37 H15         5.8810    3.2368    0.9304 H         1 <0>         0.0496
     38 H16         5.2039    0.4087    3.1091 H         1 <0>         0.4068
     39 H17         7.8539    2.3508    4.5623 H         1 <0>         0.1276
     40 H18         9.2422    1.6989    6.4385 H         1 <0>         0.1297
     41 H19         5.6451   -1.2918    4.7068 H         1 <0>         0.1187
     42 H20         6.5878   -3.0962    6.8733 H         1 <0>         0.1834
@<TRIPOS>BOND
     1    1    5 2
     2    1    2 1
     3    1   24 1
     4    2    3 2
     5    2   25 1
     6    3    4 1
     7    3    6 1
     8    4    5 1
     9    5   26 1
    10    6    7 1
    11    6   27 1
    12    6   28 1
    13    7   12 1
    14    7    8 1
    15    8    9 1
    16    8   29 1
    17    8   30 1
    18    9   10 1
    19    9   31 1
    20    9   32 1
    21   10   11 1
    22   10   33 1
    23   10   34 1
    24   11   12 1
    25   11   13 1
    26   11   35 1
    27   12   36 1
    28   12   37 1
    29   13   14 1
    30   13   38 1
    31   14   19 ar
    32   14   15 ar
    33   15   16 ar
    34   15   39 1
    35   16   17 ar
    36   16   40 1
    37   17   18 ar
    38   17   22 2
    39   18   19 ar
    40   18   20 2
    41   19   41 1
    42   20   42 1
    43   20   21 1
    44   21   23 1
    45   21   22 1
@<TRIPOS>MOLECULE
CHEMBL373512__2
   42    45     0     0     0
SMALL
USER_CHARGES

@<TRIPOS>ATOM
      1 C1         -0.0163    1.3513    0.0095 C.2       1 <0>        -0.1581
      2 C2          1.1833    2.0380    0.0017 C.2       1 <0>        -0.1564
      3 C3          2.3426    1.3358   -0.0131 C.2       1 <0>        -0.1334
      4 S1          1.7535   -0.3495   -0.0166 S.3       1 <0>         0.0552
      5 C4          0.0021   -0.0041    0.0020 C.2       1 <0>        -0.1762
      6 C5          3.7608    1.8454   -0.0244 C.3       1 <0>         0.1375
      7 N1          4.2350    2.0040    1.3569 N.3       1 <0>        -0.5321
      8 C6          3.4852    3.0573    2.0531 C.3       1 <0>         0.0507
      9 C7          3.9036    3.0954    3.5247 C.3       1 <0>        -0.1117
     10 C8          5.4075    3.3684    3.6158 C.3       1 <0>        -0.1403
     11 C9          6.1628    2.2842    2.8421 C.3       1 <0>         0.1608
     12 C10         5.6789    2.2695    1.3903 C.3       1 <0>         0.0475
     13 N2          5.9084    0.9784    3.4556 N.pl3     1 <0>        -0.7334
     14 C11         6.6818    0.5529    4.5416 C.ar      1 <0>         0.1867
     15 C12         7.6907    1.3777    5.0409 C.ar      1 <0>        -0.1336
     16 C13         8.4565    0.9812    6.0989 C.ar      1 <0>        -0.0972
     17 C14         8.2368   -0.2586    6.6943 C.ar      1 <0>         0.0771
     18 C15         7.2215   -1.0985    6.1992 C.ar      1 <0>        -0.1286
     19 C16         6.4392   -0.6782    5.1171 C.ar      1 <0>        -0.1345
     20 C17         7.2457   -2.3025    7.0236 C.2       1 <0>         0.0619
     21 N3          8.1905   -2.1603    7.9088 N.2       1 <0>        -0.2463
     22 N4          8.8222   -0.9235    7.7428 N.pl3     1 <0>        -0.5140
     23 H1          9.5564   -0.5896    8.2816 H         1 <0>         0.4374
     24 H2         -0.9542    1.8866    0.0258 H         1 <0>         0.1319
     25 H3          1.1967    3.1179    0.0070 H         1 <0>         0.1284
     26 H4         -0.8275   -0.6955    0.0065 H         1 <0>         0.1845
     27 H5          4.3986    1.1333   -0.5480 H         1 <0>         0.0916
     28 H6          3.7967    2.8084   -0.5337 H         1 <0>         0.0593
     29 H7          3.6976    4.0209    1.5901 H         1 <0>         0.0343
     30 H8          2.4175    2.8489    1.9844 H         1 <0>         0.0803
     31 H9          3.3582    3.8876    4.0376 H         1 <0>         0.0655
     32 H10         3.6788    2.1366    3.9919 H         1 <0>         0.0738
     33 H11         5.6274    4.3445    3.1835 H         1 <0>         0.0658
     34 H12         5.7178    3.3534    4.6606 H         1 <0>         0.0698
     35 H13         7.2315    2.4967    2.8674 H         1 <0>         0.0821
     36 H14         6.2045    1.4890    0.8402 H         1 <0>         0.0845
     37 H15         5.8810    3.2368    0.9304 H         1 <0>         0.0500
     38 H16         5.2039    0.4087    3.1091 H         1 <0>         0.4077
     39 H17         7.8679    2.3405    4.5848 H         1 <0>         0.1280
     40 H18         9.2341    1.6296    6.4747 H         1 <0>         0.1242
     41 H19         5.6550   -1.3136    4.7329 H         1 <0>         0.1254
     42 H20         6.5958   -3.1586    6.9186 H         1 <0>         0.1943
@<TRIPOS>BOND
     1    1    5 2
     2    1    2 1
     3    1   24 1
     4    2    3 2
     5    2   25 1
     6    3    4 1
     7    3    6 1
     8    4    5 1
     9    5   26 1
    10    6    7 1
    11    6   27 1
    12    6   28 1
    13    7   12 1
    14    7    8 1
    15    8    9 1
    16    8   29 1
    17    8   30 1
    18    9   10 1
    19    9   31 1
    20    9   32 1
    21   10   11 1
    22   10   33 1
    23   10   34 1
    24   11   12 1
    25   11   13 1
    26   11   35 1
    27   12   36 1
    28   12   37 1
    29   13   14 1
    30   13   38 1
    31   14   19 ar
    32   14   15 ar
    33   15   16 ar
    34   15   39 1
    35   16   17 ar
    36   16   40 1
    37   17   22 1
    38   17   18 ar
    39   18   19 ar
    40   18   20 1
    41   19   41 1
    42   20   21 2
    43   20   42 1
    44   21   22 1
    45   22   23 1
@<TRIPOS>MOLECULE
CHEMBL373512__3
   43    46     0     0     0
SMALL
USER_CHARGES

@<TRIPOS>ATOM
      1 C1         -0.0163    1.3513    0.0095 C.2       1 <0>        -0.1802
      2 C2          1.1833    2.0380    0.0017 C.2       1 <0>        -0.0835
      3 C3          2.3426    1.3358   -0.0131 C.2       1 <0>        -0.2691
      4 S1          1.7535   -0.3495   -0.0166 S.3       1 <0>         0.0924
      5 C4          0.0021   -0.0041    0.0020 C.2       1 <0>        -0.1175
      6 C5          3.7608    1.8454   -0.0244 C.3       1 <0>         0.0966
      7 N1          4.2350    2.0040    1.3569 N.4       1 <0>        -0.3846
      8 C6          3.4452    3.0437    2.0275 C.3       1 <0>        -0.0130
      9 C7          3.8807    3.1565    3.4901 C.3       1 <0>        -0.1397
     10 C8          5.3660    3.5248    3.5478 C.3       1 <0>        -0.1546
     11 C9          6.1729    2.4727    2.7815 C.3       1 <0>         0.1375
     12 C10         5.6525    2.3852    1.3452 C.3       1 <0>        -0.0143
     13 N2          6.0245    1.1703    3.4358 N.pl3     1 <0>        -0.7607
     14 C11         6.8533    0.8286    4.5099 C.ar      1 <0>         0.1635
     15 C12         7.8167    1.7474    4.9504 C.ar      1 <0>        -0.1237
     16 C13         8.6460    1.4703    5.9860 C.ar      1 <0>        -0.0520
     17 C14         8.5477    0.2269    6.6476 C.ar      1 <0>         0.0755
     18 C15         7.5381   -0.7391    6.1879 C.ar      1 <0>        -0.1735
     19 C16         6.7015   -0.3866    5.1066 C.ar      1 <0>        -0.1244
     20 C17         7.6617   -1.8506    7.0001 C.2       1 <0>         0.0698
     21 N3          8.6458   -1.6111    7.8796 N.pl3     1 <0>        -0.4185
     22 N4          9.1837   -0.3382    7.6585 N.2       1 <0>        -0.2890
     23 H1          8.9406   -2.2286    8.5672 H         1 <0>         0.4480
     24 H2         -0.9542    1.8866    0.0258 H         1 <0>         0.1497
     25 H3          1.1967    3.1179    0.0070 H         1 <0>         0.1427
     26 H4         -0.8275   -0.6955    0.0065 H         1 <0>         0.1998
     27 H5          4.3986    1.1333   -0.5480 H         1 <0>         0.1421
     28 H6          3.7967    2.8084   -0.5337 H         1 <0>         0.1479
     29 H7          3.6034    3.9990    1.5271 H         1 <0>         0.1314
     30 H8          2.3881    2.7817    1.9828 H         1 <0>         0.1298
     31 H9          3.2943    3.9302    3.9858 H         1 <0>         0.1114
     32 H10         3.7227    2.2017    3.9916 H         1 <0>         0.0879
     33 H11         5.5169    4.5032    3.0917 H         1 <0>         0.0895
     34 H12         5.6949    3.5510    4.5866 H         1 <0>         0.0993
     35 H13         7.2249    2.7575    2.7708 H         1 <0>         0.1244
     36 H14         6.2249    1.6371    0.7968 H         1 <0>         0.1383
     37 H15         5.7636    3.3545    0.8593 H         1 <0>         0.1450
     38 H16         5.3516    0.5450    3.1244 H         1 <0>         0.3865
     39 H17         7.9004    2.7013    4.4509 H         1 <0>         0.1278
     40 H18         9.3790    2.1971    6.3035 H         1 <0>         0.1356
     41 H19         5.9498   -1.0766    4.7527 H         1 <0>         0.1201
     42 H20         7.0703   -2.7521    6.9379 H         1 <0>         0.1884
     43 H21         4.1266    1.1309    1.8510 H         1 <0>         0.4173
@<TRIPOS>BOND
     1    1    5 2
     2    1    2 1
     3    1   24 1
     4    2    3 2
     5    2   25 1
     6    3    4 1
     7    3    6 1
     8    4    5 1
     9    5   26 1
    10    6    7 1
    11    6   27 1
    12    6   28 1
    13    7   12 1
    14    7    8 1
    15    7   43 1
    16    8    9 1
    17    8   29 1
    18    8   30 1
    19    9   10 1
    20    9   31 1
    21    9   32 1
    22   10   11 1
    23   10   33 1
    24   10   34 1
    25   11   12 1
    26   11   13 1
    27   11   35 1
    28   12   36 1
    29   12   37 1
    30   13   14 1
    31   13   38 1
    32   14   19 ar
    33   14   15 ar
    34   15   16 ar
    35   15   39 1
    36   16   17 ar
    37   16   40 1
    38   17   18 ar
    39   17   22 2
    40   18   19 ar
    41   18   20 2
    42   19   41 1
    43   20   42 1
    44   20   21 1
    45   21   23 1
    46   21   22 1
@<TRIPOS>MOLECULE
CHEMBL373512__4
   43    46     0     0     0
SMALL
USER_CHARGES

@<TRIPOS>ATOM
      1 C1         -0.0163    1.3513    0.0095 C.2       1 <0>        -0.1806
      2 C2          1.1833    2.0380    0.0017 C.2       1 <0>        -0.0834
      3 C3          2.3426    1.3358   -0.0131 C.2       1 <0>        -0.2695
      4 S1          1.7535   -0.3495   -0.0166 S.3       1 <0>         0.0940
      5 C4          0.0021   -0.0041    0.0020 C.2       1 <0>        -0.1170
      6 C5          3.7608    1.8454   -0.0244 C.3       1 <0>         0.0984
      7 N1          4.2350    2.0040    1.3569 N.4       1 <0>        -0.3797
      8 C6          3.4452    3.0437    2.0275 C.3       1 <0>        -0.0140
      9 C7          3.8807    3.1565    3.4901 C.3       1 <0>        -0.1421
     10 C8          5.3660    3.5248    3.5478 C.3       1 <0>        -0.1571
     11 C9          6.1729    2.4727    2.7815 C.3       1 <0>         0.1443
     12 C10         5.6525    2.3852    1.3452 C.3       1 <0>        -0.0176
     13 N2          7.5869    2.8555    2.7671 N.pl3     1 <0>        -0.7451
     14 C11         8.4155    2.5133    3.8416 C.ar      1 <0>         0.1616
     15 C12         7.8926    1.8022    4.9226 C.ar      1 <0>        -0.1316
     16 C13         8.6838    1.4591    5.9806 C.ar      1 <0>        -0.0951
     17 C14        10.0296    1.8177    5.9915 C.ar      1 <0>         0.0933
     18 C15        10.5678    2.5346    4.9062 C.ar      1 <0>        -0.1347
     19 C16         9.7474    2.8757    3.8245 C.ar      1 <0>        -0.1089
     20 C17        11.9770    2.7529    5.2163 C.2       1 <0>         0.0667
     21 N3         12.2190    2.2088    6.3747 N.2       1 <0>        -0.2349
     22 N4         11.0544    1.6254    6.8840 N.pl3     1 <0>        -0.5083
     23 H1         10.9824    1.1601    7.7321 H         1 <0>         0.4422
     24 H2         -0.9542    1.8866    0.0258 H         1 <0>         0.1497
     25 H3          1.1967    3.1179    0.0070 H         1 <0>         0.1426
     26 H4         -0.8275   -0.6955    0.0065 H         1 <0>         0.1999
     27 H5          4.3986    1.1333   -0.5480 H         1 <0>         0.1426
     28 H6          3.7967    2.8084   -0.5337 H         1 <0>         0.1469
     29 H7          3.6034    3.9990    1.5271 H         1 <0>         0.1308
     30 H8          2.3881    2.7817    1.9828 H         1 <0>         0.1325
     31 H9          3.2943    3.9302    3.9858 H         1 <0>         0.1158
     32 H10         3.7227    2.2017    3.9916 H         1 <0>         0.0886
     33 H11         5.5169    4.5032    3.0917 H         1 <0>         0.0863
     34 H12         5.6949    3.5510    4.5866 H         1 <0>         0.0980
     35 H13         6.0624    1.5037    3.2683 H         1 <0>         0.0976
     36 H14         6.2249    1.6371    0.7968 H         1 <0>         0.1380
     37 H15         5.7636    3.3545    0.8593 H         1 <0>         0.1357
     38 H16         7.9488    3.3463    2.0127 H         1 <0>         0.4054
     39 H17         6.8500    1.5206    4.9222 H         1 <0>         0.1253
     40 H18         8.2656    0.9090    6.8106 H         1 <0>         0.1301
     41 H19        10.1522    3.4218    2.9852 H         1 <0>         0.1303
     42 H20        12.6919    3.2727    4.5957 H         1 <0>         0.1993
     43 H21         4.1266    1.1309    1.8510 H         1 <0>         0.4238
@<TRIPOS>BOND
     1    1    5 2
     2    1    2 1
     3    1   24 1
     4    2    3 2
     5    2   25 1
     6    3    4 1
     7    3    6 1
     8    4    5 1
     9    5   26 1
    10    6    7 1
    11    6   27 1
    12    6   28 1
    13    7   12 1
    14    7    8 1
    15    7   43 1
    16    8    9 1
    17    8   29 1
    18    8   30 1
    19    9   10 1
    20    9   31 1
    21    9   32 1
    22   10   11 1
    23   10   33 1
    24   10   34 1
    25   11   12 1
    26   11   13 1
    27   11   35 1
    28   12   36 1
    29   12   37 1
    30   13   14 1
    31   13   38 1
    32   14   19 ar
    33   14   15 ar
    34   15   16 ar
    35   15   39 1
    36   16   17 ar
    37   16   40 1
    38   17   22 1
    39   17   18 ar
    40   18   19 ar
    41   18   20 1
    42   19   41 1
    43   20   21 2
    44   20   42 1
    45   21   22 1
    46   22   23 1
@<TRIPOS>MOLECULE
CHEMBL373512__5
   42    45     0     0     0
SMALL
USER_CHARGES

@<TRIPOS>ATOM
      1 C1         -0.0163    1.3513    0.0095 C.2       1 <0>        -0.1583
      2 C2          1.1833    2.0380    0.0017 C.2       1 <0>        -0.1562
      3 C3          2.3426    1.3358   -0.0131 C.2       1 <0>        -0.1337
      4 S1          1.7535   -0.3495   -0.0166 S.3       1 <0>         0.0558
      5 C4          0.0021   -0.0041    0.0020 C.2       1 <0>        -0.1761
      6 C5          3.7608    1.8454   -0.0244 C.3       1 <0>         0.1387
      7 N1          4.2350    2.0040    1.3569 N.3       1 <0>        -0.5296
      8 C6          3.4852    3.0573    2.0531 C.3       1 <0>         0.0491
      9 C7          3.9036    3.0954    3.5247 C.3       1 <0>        -0.1152
     10 C8          5.4075    3.3684    3.6158 C.3       1 <0>        -0.1374
     11 C9          6.1628    2.2842    2.8421 C.3       1 <0>         0.1582
     12 C10         5.6789    2.2695    1.3903 C.3       1 <0>         0.0517
     13 N2          7.5992    2.5699    2.8760 N.pl3     1 <0>        -0.7481
     14 C11         8.3718    2.1439    3.9619 C.ar      1 <0>         0.1883
     15 C12         7.7552    1.4396    5.0062 C.ar      1 <0>        -0.1149
     16 C13         8.4540    1.0026    6.0821 C.ar      1 <0>        -0.0641
     17 C14         9.8403    1.2565    6.1661 C.ar      1 <0>         0.0726
     18 C15        10.4900    1.9950    5.0724 C.ar      1 <0>        -0.1570
     19 C16         9.7061    2.4182    3.9771 C.ar      1 <0>        -0.1573
     20 C17        11.8261    2.0993    5.4103 C.2       1 <0>         0.0518
     21 N3         12.0011    1.4907    6.5928 N.pl3     1 <0>        -0.4275
     22 N4         10.7820    0.9771    7.0498 N.2       1 <0>        -0.2982
     23 H1         12.8472    1.4171    7.0614 H         1 <0>         0.4426
     24 H2         -0.9542    1.8866    0.0258 H         1 <0>         0.1323
     25 H3          1.1967    3.1179    0.0070 H         1 <0>         0.1289
     26 H4         -0.8275   -0.6955    0.0065 H         1 <0>         0.1847
     27 H5          4.3986    1.1333   -0.5480 H         1 <0>         0.0921
     28 H6          3.7967    2.8084   -0.5337 H         1 <0>         0.0596
     29 H7          3.6976    4.0209    1.5901 H         1 <0>         0.0351
     30 H8          2.4175    2.8489    1.9844 H         1 <0>         0.0822
     31 H9          3.3582    3.8876    4.0376 H         1 <0>         0.0711
     32 H10         3.6788    2.1366    3.9919 H         1 <0>         0.0735
     33 H11         5.6274    4.3445    3.1835 H         1 <0>         0.0624
     34 H12         5.7178    3.3534    4.6606 H         1 <0>         0.0698
     35 H13         5.9735    1.3126    3.2986 H         1 <0>         0.0886
     36 H14         6.2045    1.4890    0.8402 H         1 <0>         0.0830
     37 H15         5.8810    3.2368    0.9304 H         1 <0>         0.0400
     38 H16         8.0148    3.0544    2.1457 H         1 <0>         0.3970
     39 H17         6.6951    1.2405    4.9518 H         1 <0>         0.1303
     40 H18         7.9526    0.4629    6.8718 H         1 <0>         0.1314
     41 H19        10.1599    2.9585    3.1595 H         1 <0>         0.1191
     42 H20        12.5936    2.5844    4.8254 H         1 <0>         0.1839
@<TRIPOS>BOND
     1    1    5 2
     2    1    2 1
     3    1   24 1
     4    2    3 2
     5    2   25 1
     6    3    4 1
     7    3    6 1
     8    4    5 1
     9    5   26 1
    10    6    7 1
    11    6   27 1
    12    6   28 1
    13    7   12 1
    14    7    8 1
    15    8    9 1
    16    8   29 1
    17    8   30 1
    18    9   10 1
    19    9   31 1
    20    9   32 1
    21   10   11 1
    22   10   33 1
    23   10   34 1
    24   11   12 1
    25   11   13 1
    26   11   35 1
    27   12   36 1
    28   12   37 1
    29   13   14 1
    30   13   38 1
    31   14   19 ar
    32   14   15 ar
    33   15   16 ar
    34   15   39 1
    35   16   17 ar
    36   16   40 1
    37   17   18 ar
    38   17   22 2
    39   18   19 ar
    40   18   20 2
    41   19   41 1
    42   20   42 1
    43   20   21 1
    44   21   23 1
    45   21   22 1
@<TRIPOS>MOLECULE
CHEMBL373512__6
   42    45     0     0     0
SMALL
USER_CHARGES

@<TRIPOS>ATOM
      1 C1         -0.0163    1.3513    0.0095 C.2       1 <0>        -0.1583
      2 C2          1.1833    2.0380    0.0017 C.2       1 <0>        -0.1560
      3 C3          2.3426    1.3358   -0.0131 C.2       1 <0>        -0.1341
      4 S1          1.7535   -0.3495   -0.0166 S.3       1 <0>         0.0555
      5 C4          0.0021   -0.0041    0.0020 C.2       1 <0>        -0.1759
      6 C5          3.7608    1.8454   -0.0244 C.3       1 <0>         0.1387
      7 N1          4.2350    2.0040    1.3569 N.3       1 <0>        -0.5297
      8 C6          3.4852    3.0573    2.0531 C.3       1 <0>         0.0488
      9 C7          3.9036    3.0954    3.5247 C.3       1 <0>        -0.1150
     10 C8          5.4075    3.3684    3.6158 C.3       1 <0>        -0.1372
     11 C9          6.1628    2.2842    2.8421 C.3       1 <0>         0.1594
     12 C10         5.6789    2.2695    1.3903 C.3       1 <0>         0.0514
     13 N2          7.5992    2.5699    2.8760 N.pl3     1 <0>        -0.7467
     14 C11         8.3720    2.1438    3.9622 C.ar      1 <0>         0.1849
     15 C12         7.7717    1.4419    5.0085 C.ar      1 <0>        -0.1288
     16 C13         8.5075    1.0180    6.0771 C.ar      1 <0>        -0.0971
     17 C14         9.8735    1.2835    6.1339 C.ar      1 <0>         0.0808
     18 C15        10.4896    1.9902    5.0839 C.ar      1 <0>        -0.1314
     19 C16         9.7252    2.4148    3.9907 C.ar      1 <0>        -0.1323
     20 C17        11.9009    2.1036    5.4374 C.2       1 <0>         0.0625
     21 N3         12.0726    1.5140    6.5861 N.2       1 <0>        -0.2456
     22 N4         10.8572    0.9983    7.0477 N.pl3     1 <0>        -0.5128
     23 H1         10.7299    0.5169    7.8801 H         1 <0>         0.4381
     24 H2         -0.9542    1.8866    0.0258 H         1 <0>         0.1324
     25 H3          1.1967    3.1179    0.0070 H         1 <0>         0.1290
     26 H4         -0.8275   -0.6955    0.0065 H         1 <0>         0.1848
     27 H5          4.3986    1.1333   -0.5480 H         1 <0>         0.0922
     28 H6          3.7967    2.8084   -0.5337 H         1 <0>         0.0599
     29 H7          3.6976    4.0209    1.5901 H         1 <0>         0.0355
     30 H8          2.4175    2.8489    1.9844 H         1 <0>         0.0825
     31 H9          3.3582    3.8876    4.0376 H         1 <0>         0.0713
     32 H10         3.6788    2.1366    3.9919 H         1 <0>         0.0732
     33 H11         5.6274    4.3445    3.1835 H         1 <0>         0.0629
     34 H12         5.7178    3.3534    4.6606 H         1 <0>         0.0694
     35 H13         5.9735    1.3126    3.2986 H         1 <0>         0.0883
     36 H14         6.2045    1.4890    0.8402 H         1 <0>         0.0833
     37 H15         5.8810    3.2368    0.9304 H         1 <0>         0.0406
     38 H16         8.0148    3.0544    2.1457 H         1 <0>         0.3980
     39 H17         6.7129    1.2322    4.9724 H         1 <0>         0.1308
     40 H18         8.0296    0.4761    6.8799 H         1 <0>         0.1261
     41 H19        10.1897    2.9539    3.1783 H         1 <0>         0.1258
     42 H20        12.6667    2.5895    4.8509 H         1 <0>         0.1948
@<TRIPOS>BOND
     1    1    5 2
     2    1    2 1
     3    1   24 1
     4    2    3 2
     5    2   25 1
     6    3    4 1
     7    3    6 1
     8    4    5 1
     9    5   26 1
    10    6    7 1
    11    6   27 1
    12    6   28 1
    13    7   12 1
    14    7    8 1
    15    8    9 1
    16    8   29 1
    17    8   30 1
    18    9   10 1
    19    9   31 1
    20    9   32 1
    21   10   11 1
    22   10   33 1
    23   10   34 1
    24   11   12 1
    25   11   13 1
    26   11   35 1
    27   12   36 1
    28   12   37 1
    29   13   14 1
    30   13   38 1
    31   14   19 ar
    32   14   15 ar
    33   15   16 ar
    34   15   39 1
    35   16   17 ar
    36   16   40 1
    37   17   22 1
    38   17   18 ar
    39   18   19 ar
    40   18   20 1
    41   19   41 1
    42   20   21 2
    43   20   42 1
    44   21   22 1
    45   22   23 1
@<TRIPOS>MOLECULE
CHEMBL373512__7
   43    46     0     0     0
SMALL
USER_CHARGES

@<TRIPOS>ATOM
      1 C1         -0.0163    1.3513    0.0095 C.2       1 <0>        -0.1806
      2 C2          1.1833    2.0380    0.0017 C.2       1 <0>        -0.0837
      3 C3          2.3426    1.3358   -0.0131 C.2       1 <0>        -0.2691
      4 S1          1.7535   -0.3495   -0.0166 S.3       1 <0>         0.0942
      5 C4          0.0021   -0.0041    0.0020 C.2       1 <0>        -0.1174
      6 C5          3.7608    1.8454   -0.0244 C.3       1 <0>         0.0984
      7 N1          4.2350    2.0040    1.3569 N.4       1 <0>        -0.3797
      8 C6          3.4452    3.0437    2.0275 C.3       1 <0>        -0.0138
      9 C7          3.8807    3.1565    3.4901 C.3       1 <0>        -0.1423
     10 C8          5.3660    3.5248    3.5478 C.3       1 <0>        -0.1571
     11 C9          6.1729    2.4727    2.7815 C.3       1 <0>         0.1435
     12 C10         5.6525    2.3852    1.3452 C.3       1 <0>        -0.0174
     13 N2          7.5869    2.8555    2.7671 N.pl3     1 <0>        -0.7469
     14 C11         8.4153    2.5133    3.8413 C.ar      1 <0>         0.1622
     15 C12         7.8763    1.7987    4.9208 C.ar      1 <0>        -0.1254
     16 C13         8.6317    1.4403    5.9875 C.ar      1 <0>        -0.0539
     17 C14         9.9991    1.7895    6.0253 C.ar      1 <0>         0.0743
     18 C15        10.5675    2.5390    4.8946 C.ar      1 <0>        -0.1719
     19 C16         9.7277    2.8774    3.8113 C.ar      1 <0>        -0.1227
     20 C17        11.9020    2.7428    5.1914 C.2       1 <0>         0.0703
     21 N3         12.1495    2.1808    6.3840 N.pl3     1 <0>        -0.4188
     22 N4         10.9809    1.5992    6.8889 N.2       1 <0>        -0.2907
     23 H1         13.0108    2.1777    6.8302 H         1 <0>         0.4478
     24 H2         -0.9542    1.8866    0.0258 H         1 <0>         0.1496
     25 H3          1.1967    3.1179    0.0070 H         1 <0>         0.1425
     26 H4         -0.8275   -0.6955    0.0065 H         1 <0>         0.1998
     27 H5          4.3986    1.1333   -0.5480 H         1 <0>         0.1424
     28 H6          3.7967    2.8084   -0.5337 H         1 <0>         0.1466
     29 H7          3.6034    3.9990    1.5271 H         1 <0>         0.1304
     30 H8          2.3881    2.7817    1.9828 H         1 <0>         0.1321
     31 H9          3.2943    3.9302    3.9858 H         1 <0>         0.1155
     32 H10         3.7227    2.2017    3.9916 H         1 <0>         0.0889
     33 H11         5.5169    4.5032    3.0917 H         1 <0>         0.0856
     34 H12         5.6949    3.5510    4.5866 H         1 <0>         0.0984
     35 H13         6.0624    1.5037    3.2683 H         1 <0>         0.0978
     36 H14         6.2249    1.6371    0.7968 H         1 <0>         0.1376
     37 H15         5.7636    3.3545    0.8593 H         1 <0>         0.1350
     38 H16         7.9488    3.3463    2.0127 H         1 <0>         0.4040
     39 H17         6.8312    1.5271    4.9019 H         1 <0>         0.1237
     40 H18         8.1895    0.8903    6.8050 H         1 <0>         0.1343
     41 H19        10.1217    3.4240    2.9672 H         1 <0>         0.1232
     42 H20        12.6187    3.2619    4.5724 H         1 <0>         0.1892
     43 H21         4.1266    1.1309    1.8510 H         1 <0>         0.4239
@<TRIPOS>BOND
     1    1    5 2
     2    1    2 1
     3    1   24 1
     4    2    3 2
     5    2   25 1
     6    3    4 1
     7    3    6 1
     8    4    5 1
     9    5   26 1
    10    6    7 1
    11    6   27 1
    12    6   28 1
    13    7   12 1
    14    7    8 1
    15    7   43 1
    16    8    9 1
    17    8   29 1
    18    8   30 1
    19    9   10 1
    20    9   31 1
    21    9   32 1
    22   10   11 1
    23   10   33 1
    24   10   34 1
    25   11   12 1
    26   11   13 1
    27   11   35 1
    28   12   36 1
    29   12   37 1
    30   13   14 1
    31   13   38 1
    32   14   19 ar
    33   14   15 ar
    34   15   16 ar
    35   15   39 1
    36   16   17 ar
    37   16   40 1
    38   17   18 ar
    39   17   22 2
    40   18   19 ar
    41   18   20 2
    42   19   41 1
    43   20   42 1
    44   20   21 1
    45   21   23 1
    46   21   22 1
@<TRIPOS>MOLECULE
CHEMBL485592
   50    54     0     0     0
SMALL
USER_CHARGES

@<TRIPOS>ATOM
      1 C1         -0.0118    1.4908    0.0700 C.3       1 <0>        -0.1043
      2 C2         -0.0013   -0.0155    0.0236 C.2       1 <0>         0.3017
      3 C3         -1.2060   -0.7214    0.1021 C.2       1 <0>        -0.4532
      4 C4         -1.1148   -2.2357    0.0488 C.3       1 <0>         0.2189
      5 N1          0.2385   -2.8039   -0.0807 N.2       1 <0>        -0.5833
      6 C5          1.2587   -1.9875   -0.1406 C.2       1 <0>         0.3936
      7 N2          1.1394   -0.6571   -0.0959 N.2       1 <0>        -0.6419
      8 C6          2.6188   -2.5685   -0.2705 C.ar      1 <0>         0.1940
      9 C7          2.7761   -3.9507   -0.3306 C.ar      1 <0>        -0.1331
     10 C8          4.0511   -4.4783   -0.4518 C.ar      1 <0>        -0.0889
     11 C9          5.1263   -3.6041   -0.5087 C.ar      1 <0>        -0.1789
     12 C10         4.8962   -2.2409   -0.4433 C.ar      1 <0>         0.0883
     13 N3          3.6731   -1.7664   -0.3336 N.ar      1 <0>        -0.4405
     14 C11        -1.9376   -2.7138   -1.1198 C.ar      1 <0>        -0.0470
     15 C12        -1.4167   -2.6599   -2.3993 C.ar      1 <0>        -0.0772
     16 C13        -2.1700   -3.0985   -3.4716 C.ar      1 <0>        -0.1650
     17 C14        -3.4469   -3.5920   -3.2642 C.ar      1 <0>         0.0723
     18 C15        -3.9676   -3.6454   -1.9824 C.ar      1 <0>        -0.1612
     19 C16        -3.2104   -3.2112   -0.9109 C.ar      1 <0>        -0.0499
     20 F1         -4.1845   -4.0206   -4.3119 F         1 <0>        -0.1535
     21 C17        -2.4178   -0.0734    0.2227 C.2       1 <0>         0.5351
     22 O1         -3.5457   -0.7846    0.4285 O.3       1 <0>        -0.6383
     23 N4         -2.4760    1.2901    0.1335 N.pl3     1 <0>        -0.7034
     24 C18        -2.9700    2.0413    1.2066 C.ar      1 <0>         0.1893
     25 C19        -3.4879    1.3923    2.3284 C.ar      1 <0>        -0.0995
     26 C20        -3.9740    2.1061    3.3851 C.ar      1 <0>        -0.1099
     27 C21        -3.9582    3.4987    3.3537 C.ar      1 <0>         0.0821
     28 C22        -3.4381    4.1638    2.2272 C.ar      1 <0>        -0.1386
     29 C23        -2.9373    3.4206    1.1523 C.ar      1 <0>        -0.1354
     30 C24        -3.5624    5.5922    2.4997 C.2       1 <0>         0.0638
     31 N5         -4.1047    5.7274    3.6762 N.2       1 <0>        -0.2579
     32 N6         -4.3628    4.4708    4.2334 N.pl3     1 <0>        -0.5154
     33 H1         -4.7637    4.3120    5.1024 H         1 <0>         0.4346
     34 H2          1.0133    1.8607    0.0929 H         1 <0>         0.0642
     35 H3         -0.5181    1.8780   -0.8142 H         1 <0>         0.0641
     36 H4         -0.5381    1.8230    0.9648 H         1 <0>         0.0792
     37 H5         -1.5644   -2.6345    0.9581 H         1 <0>         0.0558
     38 H6          1.9161   -4.6022   -0.2831 H         1 <0>         0.1461
     39 H7          4.2045   -5.5463   -0.5004 H         1 <0>         0.1311
     40 H8          6.1331   -3.9834   -0.6027 H         1 <0>         0.1287
     41 H9          5.7310   -1.5571   -0.4873 H         1 <0>         0.1521
     42 H10        -0.4208   -2.2746   -2.5608 H         1 <0>         0.1149
     43 H11        -1.7630   -3.0560   -4.4711 H         1 <0>         0.1217
     44 H12        -4.9636   -4.0299   -1.8195 H         1 <0>         0.1236
     45 H13        -3.6146   -3.2569    0.0895 H         1 <0>         0.1305
     46 H14        -2.1749    1.7367   -0.6732 H         1 <0>         0.4054
     47 H15        -3.5046    0.3129    2.3605 H         1 <0>         0.1455
     48 H16        -4.3718    1.5907    4.2468 H         1 <0>         0.1222
     49 H17        -2.5326    3.9218    0.2855 H         1 <0>         0.1258
     50 H18        -3.2588    6.3941    1.8431 H         1 <0>         0.1917
@<TRIPOS>BOND
     1    1    2 1
     2    1   34 1
     3    1   35 1
     4    1   36 1
     5    2    7 2
     6    2    3 1
     7    3    4 1
     8    3   21 2
     9    4    5 1
    10    4   14 1
    11    4   37 1
    12    5    6 2
    13    6    7 1
    14    6    8 1
    15    8   13 ar
    16    8    9 ar
    17    9   10 ar
    18    9   38 1
    19   10   11 ar
    20   10   39 1
    21   11   12 ar
    22   11   40 1
    23   12   13 ar
    24   12   41 1
    25   14   19 ar
    26   14   15 ar
    27   15   16 ar
    28   15   42 1
    29   16   17 ar
    30   16   43 1
    31   17   18 ar
    32   17   20 1
    33   18   19 ar
    34   18   44 1
    35   19   45 1
    36   21   22 1
    37   21   23 1
    38   23   24 1
    39   23   46 1
    40   24   29 ar
    41   24   25 ar
    42   25   26 ar
    43   25   47 1
    44   26   27 ar
    45   26   48 1
    46   27   32 1
    47   27   28 ar
    48   28   29 ar
    49   28   30 1
    50   29   49 1
    51   30   31 2
    52   30   50 1
    53   31   32 1
    54   32   33 1
@<TRIPOS>MOLECULE
CHEMBL485592__1
   52    56     0     0     0
SMALL
USER_CHARGES

@<TRIPOS>ATOM
      1 C1         -0.0180    1.5023    0.0187 C.3       1 <0>        -0.1168
      2 C2          0.0020   -0.0044   -0.0082 C.2       1 <0>         0.2181
      3 C3         -1.1522   -0.6965   -0.0090 C.2       1 <0>        -0.2528
      4 C4         -1.1534   -2.1982   -0.0479 C.3       1 <0>         0.2055
      5 N1          0.1560   -2.7367    0.2993 N.pl3     1 <0>        -0.5549
      6 C5          1.2306   -2.0173    0.2971 C.cat     1 <0>         0.5872
      7 N2          1.1967   -0.6776   -0.0378 N.pl3     1 <0>        -0.6075
      8 C6          2.5250   -2.6443    0.6556 C.ar      1 <0>         0.0601
      9 C7          3.6868   -1.8756    0.6616 C.ar      1 <0>        -0.0998
     10 C8          4.8888   -2.4754    0.9992 C.ar      1 <0>        -0.0640
     11 C9          4.8880   -3.8248    1.3195 C.ar      1 <0>        -0.0999
     12 C10         3.6958   -4.5279    1.2931 C.ar      1 <0>         0.1269
     13 N3          2.5666   -3.9319    0.9735 N.ar      1 <0>        -0.4529
     14 C11        -1.5234   -2.6559   -1.4352 C.ar      1 <0>        -0.1511
     15 C12        -0.5703   -2.6659   -2.4364 C.ar      1 <0>        -0.0703
     16 C13        -0.9084   -3.0859   -3.7089 C.ar      1 <0>        -0.1420
     17 C14        -2.2023   -3.4967   -3.9808 C.ar      1 <0>         0.1327
     18 C15        -3.1562   -3.4863   -2.9772 C.ar      1 <0>        -0.1359
     19 C16        -2.8144   -3.0709   -1.7042 C.ar      1 <0>        -0.0653
     20 F1         -2.5341   -3.9070   -5.2245 F         1 <0>        -0.1227
     21 C17        -2.3837    0.0012    0.0277 C.2       1 <0>         0.5735
     22 O1         -2.3932    1.2185    0.0598 O.2       1 <0>        -0.5037
     23 N4         -3.5455   -0.6820    0.0273 N.am      1 <0>        -0.6623
     24 C18        -4.7606    0.0028    0.1544 C.ar      1 <0>         0.0937
     25 C19        -4.9121    1.2620   -0.4277 C.ar      1 <0>        -0.0628
     26 C20        -6.0880    1.9456   -0.3158 C.ar      1 <0>        -0.1214
     27 C21        -7.1554    1.3892    0.3851 C.ar      1 <0>         0.1266
     28 C22        -7.0136    0.1194    0.9764 C.ar      1 <0>        -0.1646
     29 C23        -5.8043   -0.5738    0.8500 C.ar      1 <0>        -0.0603
     30 C24        -8.2871   -0.1762    1.6251 C.2       1 <0>         0.0761
     31 N5         -9.0821    0.8351    1.4211 N.2       1 <0>        -0.2386
     32 N6         -8.4291    1.8150    0.6665 N.pl3     1 <0>        -0.5060
     33 H1         -8.8145    2.6603    0.3874 H         1 <0>         0.4438
     34 H2          1.0046    1.8795    0.0102 H         1 <0>         0.0775
     35 H3         -0.5497    1.8743   -0.8571 H         1 <0>         0.1204
     36 H4         -0.5234    1.8428    0.9224 H         1 <0>         0.1215
     37 H5         -1.8927   -2.5732    0.6598 H         1 <0>         0.1397
     38 H6          2.0115   -0.2150   -0.2889 H         1 <0>         0.4531
     39 H7          3.6508   -0.8268    0.4063 H         1 <0>         0.1500
     40 H8          5.8060   -1.9053    1.0122 H         1 <0>         0.1648
     41 H9          5.8086   -4.3223    1.5868 H         1 <0>         0.1649
     42 H10         3.6915   -5.5788    1.5420 H         1 <0>         0.1871
     43 H11         0.4389   -2.3451   -2.2242 H         1 <0>         0.1183
     44 H12        -0.1636   -3.0933   -4.4910 H         1 <0>         0.1472
     45 H13        -4.1659   -3.8062   -3.1882 H         1 <0>         0.1530
     46 H14        -3.5571   -3.0669   -0.9201 H         1 <0>         0.1388
     47 H15        -3.5401   -1.6480   -0.0611 H         1 <0>         0.4012
     48 H16        -4.0893    1.7008   -0.9726 H         1 <0>         0.1465
     49 H17        -6.1910    2.9195   -0.7711 H         1 <0>         0.1338
     50 H18        -5.6875   -1.5503    1.2963 H         1 <0>         0.1327
     51 H19        -8.5274   -1.0736    2.1758 H         1 <0>         0.2003
     52 H20         0.2240   -3.6734    0.5422 H         1 <0>         0.4607
@<TRIPOS>BOND
     1    1    2 1
     2    1   34 1
     3    1   35 1
     4    1   36 1
     5    2    7 1
     6    2    3 2
     7    3    4 1
     8    3   21 1
     9    4    5 1
    10    4   14 1
    11    4   37 1
    12    5    6 2
    13    5   52 1
    14    6    7 1
    15    6    8 1
    16    7   38 1
    17    8   13 ar
    18    8    9 ar
    19    9   10 ar
    20    9   39 1
    21   10   11 ar
    22   10   40 1
    23   11   12 ar
    24   11   41 1
    25   12   13 ar
    26   12   42 1
    27   14   19 ar
    28   14   15 ar
    29   15   16 ar
    30   15   43 1
    31   16   17 ar
    32   16   44 1
    33   17   18 ar
    34   17   20 1
    35   18   19 ar
    36   18   45 1
    37   19   46 1
    38   21   22 2
    39   21   23 am
    40   23   24 1
    41   23   47 1
    42   24   29 ar
    43   24   25 ar
    44   25   26 ar
    45   25   48 1
    46   26   27 ar
    47   26   49 1
    48   27   32 1
    49   27   28 ar
    50   28   29 ar
    51   28   30 1
    52   29   50 1
    53   30   31 2
    54   30   51 1
    55   31   32 1
    56   32   33 1
@<TRIPOS>MOLECULE
CHEMBL485592__2
   50    54     0     0     0
SMALL
USER_CHARGES

@<TRIPOS>ATOM
      1 C1         -0.0148    1.4922    0.0361 C.3       1 <0>        -0.1048
      2 C2         -0.0024   -0.0145    0.0079 C.2       1 <0>         0.3016
      3 C3         -1.2055   -0.7211    0.1025 C.2       1 <0>        -0.4534
      4 C4         -1.1124   -2.2358    0.0669 C.3       1 <0>         0.2185
      5 N1          0.2409   -2.8036   -0.0641 N.2       1 <0>        -0.5833
      6 C5          1.2595   -1.9865   -0.1403 C.2       1 <0>         0.3936
      7 N2          1.1385   -0.6559   -0.1110 N.2       1 <0>        -0.6419
      8 C6          2.6197   -2.5672   -0.2717 C.ar      1 <0>         0.1940
      9 C7          2.7786   -3.9498   -0.3161 C.ar      1 <0>        -0.1330
     10 C8          4.0536   -4.4771   -0.4389 C.ar      1 <0>        -0.0889
     11 C9          5.1271   -3.6021   -0.5131 C.ar      1 <0>        -0.1789
     12 C10         4.8955   -2.2385   -0.4627 C.ar      1 <0>         0.0882
     13 N3          3.6723   -1.7644   -0.3512 N.ar      1 <0>        -0.4406
     14 C11        -1.7252   -2.7728    1.3346 C.ar      1 <0>        -0.0428
     15 C12        -0.9973   -2.7675    2.5098 C.ar      1 <0>        -0.0763
     16 C13        -1.5584   -3.2593    3.6731 C.ar      1 <0>        -0.1659
     17 C14        -2.8501   -3.7576    3.6611 C.ar      1 <0>         0.0723
     18 C15        -3.5783   -3.7625    2.4835 C.ar      1 <0>        -0.1628
     19 C16        -3.0170   -3.2653    1.3226 C.ar      1 <0>        -0.0417
     20 F1         -3.3995   -4.2391    4.7976 F         1 <0>        -0.1544
     21 C17        -2.4175   -0.0733    0.2228 C.2       1 <0>         0.5335
     22 O1         -3.5452   -0.7849    0.4286 O.3       1 <0>        -0.6364
     23 N4         -2.4760    1.2901    0.1335 N.pl3     1 <0>        -0.7038
     24 C18        -2.9700    2.0413    1.2066 C.ar      1 <0>         0.1892
     25 C19        -3.4879    1.3923    2.3284 C.ar      1 <0>        -0.0980
     26 C20        -3.9740    2.1061    3.3851 C.ar      1 <0>        -0.1097
     27 C21        -3.9582    3.4987    3.3537 C.ar      1 <0>         0.0830
     28 C22        -3.4381    4.1638    2.2272 C.ar      1 <0>        -0.1392
     29 C23        -2.9373    3.4206    1.1523 C.ar      1 <0>        -0.1357
     30 C24        -3.5624    5.5922    2.4997 C.2       1 <0>         0.0636
     31 N5         -4.1047    5.7274    3.6762 N.2       1 <0>        -0.2580
     32 N6         -4.3628    4.4708    4.2334 N.pl3     1 <0>        -0.5152
     33 H1         -4.7637    4.3120    5.1024 H         1 <0>         0.4347
     34 H2          1.0098    1.8638    0.0476 H         1 <0>         0.0642
     35 H3         -0.5277    1.8680   -0.8491 H         1 <0>         0.0646
     36 H4         -0.5354    1.8345    0.9305 H         1 <0>         0.0792
     37 H5         -1.7122   -2.5926   -0.7704 H         1 <0>         0.0533
     38 H6          1.9199   -4.6019   -0.2553 H         1 <0>         0.1462
     39 H7          4.2083   -5.5453   -0.4756 H         1 <0>         0.1312
     40 H8          6.1339   -3.9810   -0.6088 H         1 <0>         0.1287
     41 H9          5.7289   -1.5541   -0.5202 H         1 <0>         0.1521
     42 H10         0.0104   -2.3791    2.5188 H         1 <0>         0.1132
     43 H11        -0.9893   -3.2554    4.5910 H         1 <0>         0.1205
     44 H12        -4.5858   -4.1512    2.4729 H         1 <0>         0.1224
     45 H13        -3.5863   -3.2648    0.4049 H         1 <0>         0.1270
     46 H14        -2.1751    1.7367   -0.6733 H         1 <0>         0.4053
     47 H15        -3.5046    0.3129    2.3605 H         1 <0>         0.1453
     48 H16        -4.3718    1.5907    4.2468 H         1 <0>         0.1217
     49 H17        -2.5326    3.9218    0.2855 H         1 <0>         0.1258
     50 H18        -3.2588    6.3941    1.8431 H         1 <0>         0.1916
@<TRIPOS>BOND
     1    1    2 1
     2    1   34 1
     3    1   35 1
     4    1   36 1
     5    2    7 2
     6    2    3 1
     7    3    4 1
     8    3   21 2
     9    4    5 1
    10    4   14 1
    11    4   37 1
    12    5    6 2
    13    6    7 1
    14    6    8 1
    15    8   13 ar
    16    8    9 ar
    17    9   10 ar
    18    9   38 1
    19   10   11 ar
    20   10   39 1
    21   11   12 ar
    22   11   40 1
    23   12   13 ar
    24   12   41 1
    25   14   19 ar
    26   14   15 ar
    27   15   16 ar
    28   15   42 1
    29   16   17 ar
    30   16   43 1
    31   17   18 ar
    32   17   20 1
    33   18   19 ar
    34   18   44 1
    35   19   45 1
    36   21   22 1
    37   21   23 1
    38   23   24 1
    39   23   46 1
    40   24   29 ar
    41   24   25 ar
    42   25   26 ar
    43   25   47 1
    44   26   27 ar
    45   26   48 1
    46   27   32 1
    47   27   28 ar
    48   28   29 ar
    49   28   30 1
    50   29   49 1
    51   30   31 2
    52   30   50 1
    53   31   32 1
    54   32   33 1
@<TRIPOS>MOLECULE
CHEMBL485592__3
   52    56     0     0     0
SMALL
USER_CHARGES

@<TRIPOS>ATOM
      1 C1         -0.0179    1.5019    0.0214 C.3       1 <0>        -0.1166
      2 C2          0.0022   -0.0049    0.0049 C.2       1 <0>         0.2175
      3 C3         -1.1521   -0.6969    0.0031 C.2       1 <0>        -0.2523
      4 C4         -1.1530   -2.1992   -0.0021 C.3       1 <0>         0.2061
      5 N1          0.1508   -2.7270   -0.3848 N.pl3     1 <0>        -0.5557
      6 C5          1.2254   -2.0077   -0.3780 C.cat     1 <0>         0.5869
      7 N2          1.1970   -0.6783   -0.0140 N.pl3     1 <0>        -0.6062
      8 C6          2.5141   -2.6238   -0.7745 C.ar      1 <0>         0.0604
      9 C7          3.6778   -1.8580   -0.7646 C.ar      1 <0>        -0.1003
     10 C8          4.8745   -2.4476   -1.1372 C.ar      1 <0>        -0.0638
     11 C9          4.8666   -3.7842   -1.5072 C.ar      1 <0>        -0.1001
     12 C10         3.6729   -4.4851   -1.4938 C.ar      1 <0>         0.1269
     13 N3          2.5505   -3.9014   -1.1305 N.ar      1 <0>        -0.4529
     14 C11        -1.5020   -2.6974    1.3767 C.ar      1 <0>        -0.1504
     15 C12        -0.5364   -2.7258    2.3657 C.ar      1 <0>        -0.0703
     16 C13        -0.8554   -3.1820    3.6306 C.ar      1 <0>        -0.1429
     17 C14        -2.1425   -3.6108    3.9072 C.ar      1 <0>         0.1329
     18 C15        -3.1087   -3.5819    2.9159 C.ar      1 <0>        -0.1375
     19 C16        -2.7888   -3.1203    1.6531 C.ar      1 <0>        -0.0632
     20 F1         -2.4554   -4.0574    5.1433 F         1 <0>        -0.1229
     21 C17        -2.3838    0.0013    0.0065 C.2       1 <0>         0.5740
     22 O1         -2.3935    1.2190    0.0111 O.2       1 <0>        -0.5036
     23 N4         -3.5456   -0.6819    0.0047 N.am      1 <0>        -0.6612
     24 C18        -4.7619    0.0047    0.1098 C.ar      1 <0>         0.0943
     25 C19        -4.9078    1.2547   -0.4932 C.ar      1 <0>        -0.0635
     26 C20        -6.0847    1.9399   -0.4030 C.ar      1 <0>        -0.1215
     27 C21        -7.1586    1.3943    0.2965 C.ar      1 <0>         0.1266
     28 C22        -7.0224    0.1339    0.9088 C.ar      1 <0>        -0.1645
     29 C23        -5.8120   -0.5610    0.8046 C.ar      1 <0>        -0.0588
     30 C24        -8.3019   -0.1517    1.5501 C.2       1 <0>         0.0761
     31 N5         -9.0950    0.8562    1.3229 N.2       1 <0>        -0.2385
     32 N6         -8.4348    1.8243    0.5593 N.pl3     1 <0>        -0.5060
     33 H1         -8.8176    2.6651    0.2635 H         1 <0>         0.4438
     34 H2          1.0048    1.8790    0.0155 H         1 <0>         0.0774
     35 H3         -0.5452    1.8679   -0.8596 H         1 <0>         0.1215
     36 H4         -0.5278    1.8487    0.9202 H         1 <0>         0.1204
     37 H5         -1.9032   -2.5534   -0.7091 H         1 <0>         0.1390
     38 H6          2.0178   -0.2228    0.2300 H         1 <0>         0.4526
     39 H7          3.6472   -0.8191   -0.4710 H         1 <0>         0.1498
     40 H8          5.7929   -1.8793   -1.1398 H         1 <0>         0.1648
     41 H9          5.7828   -4.2734   -1.8033 H         1 <0>         0.1649
     42 H10         3.6631   -5.5260   -1.7814 H         1 <0>         0.1870
     43 H11         0.4676   -2.3916    2.1497 H         1 <0>         0.1176
     44 H12        -0.1008   -3.2044    4.4030 H         1 <0>         0.1466
     45 H13        -4.1130   -3.9164    3.1304 H         1 <0>         0.1530
     46 H14        -3.5434   -3.0935    0.8810 H         1 <0>         0.1382
     47 H15        -3.5395   -1.6490   -0.0694 H         1 <0>         0.4016
     48 H16        -4.0799    1.6850   -1.0371 H         1 <0>         0.1468
     49 H17        -6.1834    2.9066   -0.8743 H         1 <0>         0.1339
     50 H18        -5.6994   -1.5305    1.2671 H         1 <0>         0.1317
     51 H19        -8.5474   -1.0404    2.1124 H         1 <0>         0.2001
     52 H20         0.2149   -3.6561   -0.6560 H         1 <0>         0.4607
@<TRIPOS>BOND
     1    1    2 1
     2    1   34 1
     3    1   35 1
     4    1   36 1
     5    2    7 1
     6    2    3 2
     7    3    4 1
     8    3   21 1
     9    4    5 1
    10    4   14 1
    11    4   37 1
    12    5    6 2
    13    5   52 1
    14    6    7 1
    15    6    8 1
    16    7   38 1
    17    8   13 ar
    18    8    9 ar
    19    9   10 ar
    20    9   39 1
    21   10   11 ar
    22   10   40 1
    23   11   12 ar
    24   11   41 1
    25   12   13 ar
    26   12   42 1
    27   14   19 ar
    28   14   15 ar
    29   15   16 ar
    30   15   43 1
    31   16   17 ar
    32   16   44 1
    33   17   18 ar
    34   17   20 1
    35   18   19 ar
    36   18   45 1
    37   19   46 1
    38   21   22 2
    39   21   23 am
    40   23   24 1
    41   23   47 1
    42   24   29 ar
    43   24   25 ar
    44   25   26 ar
    45   25   48 1
    46   26   27 ar
    47   26   49 1
    48   27   32 1
    49   27   28 ar
    50   28   29 ar
    51   28   30 1
    52   29   50 1
    53   30   31 2
    54   30   51 1
    55   31   32 1
    56   32   33 1
@<TRIPOS>MOLECULE
CHEMBL1215304
   69    73     0     0     0
SMALL
USER_CHARGES

@<TRIPOS>ATOM
      1 C1         -0.0132    1.4437   -0.0259 C.3       1 <0>        -0.0474
      2 N1          0.0016   -0.0252   -0.0256 N.4       1 <0>        -0.3860
      3 C2         -1.3778   -0.5269   -0.0148 C.3       1 <0>        -0.0040
      4 C3         -1.3694   -2.0549   -0.0963 C.3       1 <0>        -0.1427
      5 C4         -0.6094   -2.6206    1.1069 C.3       1 <0>        -0.0985
      6 C5          0.8046   -2.0328    1.1274 C.3       1 <0>        -0.1424
      7 C6          0.7156   -0.5056    1.1635 C.3       1 <0>        -0.0071
      8 C7         -0.5284   -4.1441    0.9907 C.3       1 <0>         0.0640
      9 O1          0.0774   -4.6801    2.1687 O.3       1 <0>        -0.3182
     10 C8          0.2255   -6.0305    2.2268 C.ar      1 <0>         0.1017
     11 C9         -0.1975   -6.8194    1.1719 C.ar      1 <0>        -0.1862
     12 C10        -0.0445   -8.2026    1.2342 C.ar      1 <0>         0.0325
     13 C11         0.5338   -8.7883    2.3584 C.ar      1 <0>        -0.1288
     14 C12         0.9548   -7.9993    3.4093 C.ar      1 <0>        -0.0852
     15 C13         0.8086   -6.6205    3.3467 C.ar      1 <0>         0.1187
     16 N2          1.2424   -5.8214    4.4130 N.am      1 <0>        -0.6626
     17 C14         2.2112   -6.2660    5.2376 C.2       1 <0>         0.5220
     18 O2          2.7775   -7.3120    4.9996 O.2       1 <0>        -0.4988
     19 C15         2.5910   -5.4637    6.4555 C.3       1 <0>         0.0758
     20 H1          2.5962   -4.4023    6.2077 H         1 <0>         0.1067
     21 C16         1.5847   -5.7245    7.5767 C.3       1 <0>        -0.1065
     22 C17         2.0835   -5.1233    8.8657 C.ar      1 <0>        -0.0417
     23 C18         1.1796   -4.9354    9.8994 C.ar      1 <0>        -0.1504
     24 C19         1.5969   -4.3897   11.1024 C.ar      1 <0>         0.1326
     25 C20         2.9268   -4.0311   11.2702 C.ar      1 <0>        -0.2041
     26 C21         3.8228   -4.2181   10.2386 C.ar      1 <0>        -0.0682
     27 C22         3.4037   -4.7625    9.0329 C.ar      1 <0>        -0.1586
     28 C23         4.4197   -4.9359    7.9343 C.3       1 <0>         0.1024
     29 N3          3.9275   -5.8700    6.9182 N.3       1 <0>        -0.6574
     30 O3          0.7076   -4.2060   12.1134 O.3       1 <0>        -0.3168
     31 C24         1.2105   -3.6382   13.3246 C.3       1 <0>         0.0259
     32 C25        -0.4979   -9.0520    0.1039 C.2       1 <0>        -0.2093
     33 C26        -0.4151  -10.4119    0.0338 C.2       1 <0>         0.0857
     34 N4         -0.9345  -10.7916   -1.1517 N.pl3     1 <0>        -0.4674
     35 H2         -1.0079  -11.7034   -1.4746 H         1 <0>         0.4459
     36 N5         -1.3500   -9.6426   -1.8353 N.2       1 <0>        -0.2881
     37 C27        -1.0970   -8.6007   -1.0881 C.2       1 <0>         0.0645
     38 H3          1.0106    1.8174   -0.0406 H         1 <0>         0.1242
     39 H4         -0.5433    1.8015   -0.9086 H         1 <0>         0.1241
     40 H5         -0.5180    1.8021    0.8712 H         1 <0>         0.1218
     41 H6         -1.8701   -0.2153    0.9064 H         1 <0>         0.1301
     42 H7         -1.9183   -0.1209   -0.8699 H         1 <0>         0.1337
     43 H8         -2.3944   -2.4256   -0.0864 H         1 <0>         0.1169
     44 H9         -0.8775   -2.3677   -1.0173 H         1 <0>         0.0929
     45 H10        -1.1295   -2.3512    2.0261 H         1 <0>         0.1011
     46 H11         1.3335   -2.3876    2.0119 H         1 <0>         0.1192
     47 H12         1.3416   -2.3450    0.2317 H         1 <0>         0.0894
     48 H13         1.7206   -0.0838    1.1783 H         1 <0>         0.1320
     49 H14         0.1787   -0.1945    2.0596 H         1 <0>         0.1293
     50 H15        -1.5324   -4.5539    0.8797 H         1 <0>         0.0735
     51 H16         0.0710   -4.4107    0.1203 H         1 <0>         0.0692
     52 H17        -0.6458   -6.3636    0.3015 H         1 <0>         0.1293
     53 H18         0.6523   -9.8607    2.4075 H         1 <0>         0.1289
     54 H19         1.4025   -8.4550    4.2800 H         1 <0>         0.1549
     55 H20         0.8453   -4.9483    4.5575 H         1 <0>         0.4113
     56 H21         0.6267   -5.2754    7.3147 H         1 <0>         0.0889
     57 H22         1.4560   -6.7993    7.7046 H         1 <0>         0.0897
     58 H23         0.1451   -5.2153    9.7663 H         1 <0>         0.1309
     59 H24         3.2591   -3.6064   12.2059 H         1 <0>         0.1312
     60 H25         4.8577   -3.9385   10.3699 H         1 <0>         0.1290
     61 H26         4.6127   -3.9701    7.4671 H         1 <0>         0.0868
     62 H27         5.3467   -5.3210    8.3591 H         1 <0>         0.0942
     63 H28         3.9154   -6.8139    7.2746 H         1 <0>         0.3573
     64 H29         1.6270   -2.6523   13.1182 H         1 <0>         0.0569
     65 H30         0.3993   -3.5460   14.0468 H         1 <0>         0.1036
     66 H31         1.9886   -4.2833   13.7325 H         1 <0>         0.0579
     67 H32        -0.0072  -11.0659    0.7902 H         1 <0>         0.1838
     68 H33        -1.3079   -7.5723   -1.3419 H         1 <0>         0.1814
     69 H34         0.4712   -0.3560   -0.8552 H         1 <0>         0.4248
@<TRIPOS>BOND
     1    1    2 1
     2    1   38 1
     3    1   39 1
     4    1   40 1
     5    2    7 1
     6    2    3 1
     7    2   69 1
     8    3    4 1
     9    3   41 1
    10    3   42 1
    11    4    5 1
    12    4   43 1
    13    4   44 1
    14    5    6 1
    15    5    8 1
    16    5   45 1
    17    6    7 1
    18    6   46 1
    19    6   47 1
    20    7   48 1
    21    7   49 1
    22    8    9 1
    23    8   50 1
    24    8   51 1
    25    9   10 1
    26   10   15 ar
    27   10   11 ar
    28   11   12 ar
    29   11   52 1
    30   12   13 ar
    31   12   32 1
    32   13   14 ar
    33   13   53 1
    34   14   15 ar
    35   14   54 1
    36   15   16 1
    37   16   17 am
    38   16   55 1
    39   17   18 2
    40   17   19 1
    41   19   20 1
    42   19   29 1
    43   19   21 1
    44   21   22 1
    45   21   56 1
    46   21   57 1
    47   22   27 ar
    48   22   23 ar
    49   23   24 ar
    50   23   58 1
    51   24   25 ar
    52   24   30 1
    53   25   26 ar
    54   25   59 1
    55   26   27 ar
    56   26   60 1
    57   27   28 1
    58   28   29 1
    59   28   61 1
    60   28   62 1
    61   29   63 1
    62   30   31 1
    63   31   64 1
    64   31   65 1
    65   31   66 1
    66   32   37 1
    67   32   33 2
    68   33   34 1
    69   33   67 1
    70   34   35 1
    71   34   36 1
    72   36   37 2
    73   37   68 1
@<TRIPOS>MOLECULE
CHEMBL520828
   55    59     0     0     0
SMALL
USER_CHARGES

@<TRIPOS>ATOM
      1 C1         -0.5281    1.7047   -0.6715 C.3       1 <0>        -0.1039
      2 C2         -0.3806    0.2691   -0.2377 C.2       1 <0>         0.3073
      3 C3         -1.4971   -0.5736   -0.2336 C.2       1 <0>        -0.4561
      4 C4         -1.2705   -2.0059    0.2152 C.3       1 <0>         0.2193
      5 N1          0.1071   -2.3590    0.6009 N.2       1 <0>        -0.5933
      6 C5          1.0338   -1.4361    0.5348 C.2       1 <0>         0.4015
      7 N2          0.7969   -0.1841    0.1291 N.2       1 <0>        -0.6618
      8 C6          2.4167   -1.7992    0.9244 C.ar      1 <0>        -0.0545
      9 C7          2.7068   -3.0978    1.3428 C.ar      1 <0>        -0.0414
     10 C8          3.9940   -3.4325    1.7040 C.ar      1 <0>        -0.1649
     11 C9          5.0020   -2.4781    1.6517 C.ar      1 <0>         0.1233
     12 C10         4.7163   -1.1840    1.2354 C.ar      1 <0>        -0.2219
     13 C11         3.4322   -0.8445    0.8679 C.ar      1 <0>        -0.0366
     14 O1          6.2692   -2.8108    2.0086 O.3       1 <0>        -0.3217
     15 C12         7.2567   -1.7808    1.9311 C.3       1 <0>         0.0287
     16 C13        -1.6923   -2.9205   -0.9058 C.ar      1 <0>        -0.0659
     17 C14        -2.9130   -3.5664   -0.8485 C.ar      1 <0>        -0.0416
     18 C15        -3.3006   -4.4054   -1.8761 C.ar      1 <0>        -0.1300
     19 C16        -2.4673   -4.5993   -2.9638 C.ar      1 <0>        -0.0213
     20 C17        -1.2459   -3.9535   -3.0229 C.ar      1 <0>        -0.1644
     21 C18        -0.8597   -3.1092   -1.9957 C.ar      1 <0>         0.1226
     22 F1          0.3312   -2.4740   -2.0545 F         1 <0>        -0.1284
     23 Cl1        -2.9550   -5.6538   -4.2537 Cl        1 <0>        -0.0828
     24 C19        -2.7431   -0.1249   -0.6182 C.2       1 <0>         0.5328
     25 O2         -3.8207   -0.9249   -0.4791 O.3       1 <0>        -0.6402
     26 N3         -2.8865    1.1310   -1.1407 N.pl3     1 <0>        -0.7034
     27 C20        -3.7376    2.0539   -0.5212 C.ar      1 <0>         0.1907
     28 C21        -4.3342    1.7372    0.7001 C.ar      1 <0>        -0.0951
     29 C22        -5.1672    2.6226    1.3202 C.ar      1 <0>        -0.1088
     30 C23        -5.4318    3.8593    0.7361 C.ar      1 <0>         0.0826
     31 C24        -4.8350    4.1895   -0.4955 C.ar      1 <0>        -0.1383
     32 C25        -3.9781    3.2751   -1.1187 C.ar      1 <0>        -0.1349
     33 C26        -5.3047    5.5293   -0.8335 C.2       1 <0>         0.0636
     34 N4         -6.0977    5.9258    0.1207 N.2       1 <0>        -0.2573
     35 N5         -6.2030    4.9338    1.1010 N.pl3     1 <0>        -0.5151
     36 H1         -6.7360    4.9955    1.9091 H         1 <0>         0.4348
     37 H2          0.4220    2.2230   -0.5416 H         1 <0>         0.0623
     38 H3         -0.8200    1.7389   -1.7211 H         1 <0>         0.0641
     39 H4         -1.2928    2.1907   -0.0656 H         1 <0>         0.0785
     40 H5         -1.9215   -2.2010    1.0673 H         1 <0>         0.0566
     41 H6          1.9235   -3.8402    1.3840 H         1 <0>         0.1398
     42 H7          4.2192   -4.4377    2.0283 H         1 <0>         0.1268
     43 H8          5.5022   -0.4442    1.1958 H         1 <0>         0.1241
     44 H9          3.2115    0.1606    0.5401 H         1 <0>         0.1385
     45 H10         8.2222   -2.1789    2.2430 H         1 <0>         0.0948
     46 H11         7.3265   -1.4208    0.9046 H         1 <0>         0.0539
     47 H12         6.9745   -0.9569    2.5867 H         1 <0>         0.0538
     48 H13        -3.5640   -3.4157   -0.0001 H         1 <0>         0.1384
     49 H14        -4.2543   -4.9102   -1.8301 H         1 <0>         0.1291
     50 H15        -0.5953   -4.1046   -3.8716 H         1 <0>         0.1325
     51 H16        -2.3984    1.3822   -1.9405 H         1 <0>         0.4049
     52 H17        -4.1346    0.7804    1.1596 H         1 <0>         0.1386
     53 H18        -5.6223    2.3641    2.2649 H         1 <0>         0.1227
     54 H19        -3.5125    3.5209   -2.0616 H         1 <0>         0.1252
     55 H20        -5.0416    6.0918   -1.7171 H         1 <0>         0.1916
@<TRIPOS>BOND
     1    1    2 1
     2    1   37 1
     3    1   38 1
     4    1   39 1
     5    2    7 2
     6    2    3 1
     7    3    4 1
     8    3   24 2
     9    4    5 1
    10    4   16 1
    11    4   40 1
    12    5    6 2
    13    6    7 1
    14    6    8 1
    15    8   13 ar
    16    8    9 ar
    17    9   10 ar
    18    9   41 1
    19   10   11 ar
    20   10   42 1
    21   11   12 ar
    22   11   14 1
    23   12   13 ar
    24   12   43 1
    25   13   44 1
    26   14   15 1
    27   15   45 1
    28   15   46 1
    29   15   47 1
    30   16   21 ar
    31   16   17 ar
    32   17   18 ar
    33   17   48 1
    34   18   19 ar
    35   18   49 1
    36   19   20 ar
    37   19   23 1
    38   20   21 ar
    39   20   50 1
    40   21   22 1
    41   24   25 1
    42   24   26 1
    43   26   27 1
    44   26   51 1
    45   27   32 ar
    46   27   28 ar
    47   28   29 ar
    48   28   52 1
    49   29   30 ar
    50   29   53 1
    51   30   35 1
    52   30   31 ar
    53   31   32 ar
    54   31   33 1
    55   32   54 1
    56   33   34 2
    57   33   55 1
    58   34   35 1
    59   35   36 1
@<TRIPOS>MOLECULE
CHEMBL520828__1
   57    61     0     0     0
SMALL
USER_CHARGES

@<TRIPOS>ATOM
      1 C1          0.5829    1.0183   -1.1877 C.3       1 <0>        -0.1203
      2 C2          0.3351   -0.4151   -0.7940 C.2       1 <0>         0.2240
      3 C3         -0.9071   -0.8242   -0.4768 C.2       1 <0>        -0.2659
      4 C4         -1.1774   -2.2510   -0.0925 C.3       1 <0>         0.2114
      5 N1          0.0558   -2.9486    0.2503 N.pl3     1 <0>        -0.5837
      6 C5          1.2268   -2.4984   -0.0718 C.cat     1 <0>         0.5921
      7 N2          1.3736   -1.3106   -0.7625 N.pl3     1 <0>        -0.6095
      8 C6          2.4293   -3.2736    0.3023 C.ar      1 <0>        -0.2067
      9 C7          2.3635   -4.6648    0.3968 C.ar      1 <0>        -0.0179
     10 C8          3.4859   -5.3837    0.7457 C.ar      1 <0>        -0.1475
     11 C9          4.6821   -4.7257    1.0033 C.ar      1 <0>         0.2070
     12 C10         4.7513   -3.3413    0.9101 C.ar      1 <0>        -0.2104
     13 C11         3.6344   -2.6163    0.5562 C.ar      1 <0>        -0.0047
     14 O1          5.7861   -5.4374    1.3472 O.3       1 <0>        -0.2954
     15 C12         6.9826   -4.6976    1.5983 C.3       1 <0>         0.0153
     16 C13        -1.8390   -2.9567   -1.2481 C.ar      1 <0>        -0.1855
     17 C14        -1.9147   -2.3399   -2.4827 C.ar      1 <0>        -0.0442
     18 C15        -2.5212   -2.9863   -3.5431 C.ar      1 <0>        -0.1113
     19 C16        -3.0530   -4.2521   -3.3700 C.ar      1 <0>         0.0163
     20 C17        -2.9777   -4.8709   -2.1356 C.ar      1 <0>        -0.1402
     21 C18        -2.3658   -4.2252   -1.0746 C.ar      1 <0>         0.1356
     22 F1         -2.2874   -4.8306    0.1307 F         1 <0>        -0.1259
     23 Cl1        -3.8151   -5.0630   -4.7024 Cl        1 <0>        -0.0245
     24 C19        -1.9755    0.1045   -0.5054 C.2       1 <0>         0.5728
     25 O2         -1.7514    1.2843   -0.7072 O.2       1 <0>        -0.5044
     26 N3         -3.2404   -0.3173   -0.3093 N.am      1 <0>        -0.6532
     27 C20        -4.3111    0.5630   -0.5097 C.ar      1 <0>         0.0980
     28 C21        -4.0980    1.9408   -0.4487 C.ar      1 <0>        -0.0868
     29 C22        -5.1277    2.8155   -0.6415 C.ar      1 <0>        -0.1206
     30 C23        -6.4099    2.3381   -0.9029 C.ar      1 <0>         0.1222
     31 C24        -6.6363    0.9501   -0.9667 C.ar      1 <0>        -0.1616
     32 C25        -5.5710    0.0635   -0.7724 C.ar      1 <0>        -0.0667
     33 C26        -8.0575    0.7783   -1.2508 C.2       1 <0>         0.0749
     34 N4         -8.5917    1.9628   -1.3405 N.2       1 <0>        -0.2389
     35 N5         -7.6182    2.9457   -1.1341 N.pl3     1 <0>        -0.5069
     36 H1         -7.7727    3.9032   -1.1514 H         1 <0>         0.4433
     37 H2          1.6408    1.1560   -1.4114 H         1 <0>         0.0782
     38 H3         -0.0095    1.2604   -2.0700 H         1 <0>         0.1175
     39 H4          0.2968    1.6754   -0.3664 H         1 <0>         0.1247
     40 H5         -1.8482   -2.2685    0.7665 H         1 <0>         0.1391
     41 H6          2.2055   -1.1092   -1.2188 H         1 <0>         0.4548
     42 H7          1.4339   -5.1769    0.1971 H         1 <0>         0.1446
     43 H8          3.4357   -6.4600    0.8194 H         1 <0>         0.1585
     44 H9          5.6828   -2.8331    1.1111 H         1 <0>         0.1550
     45 H10         3.6900   -1.5405    0.4797 H         1 <0>         0.1447
     46 H11         7.7862   -5.3851    1.8623 H         1 <0>         0.1171
     47 H12         7.2602   -4.1409    0.7032 H         1 <0>         0.0684
     48 H13         6.8142   -4.0025    2.4208 H         1 <0>         0.0684
     49 H14        -1.5000   -1.3520   -2.6188 H         1 <0>         0.1456
     50 H15        -2.5805   -2.5032   -4.5071 H         1 <0>         0.1530
     51 H16        -3.3926   -5.8588   -2.0002 H         1 <0>         0.1601
     52 H17        -3.4092   -1.2305   -0.0293 H         1 <0>         0.4067
     53 H18        -3.1069    2.3192   -0.2461 H         1 <0>         0.1709
     54 H19        -4.9482    3.8793   -0.5910 H         1 <0>         0.1330
     55 H20        -5.7339   -1.0029   -0.8235 H         1 <0>         0.1308
     56 H21        -8.5741   -0.1631   -1.3661 H         1 <0>         0.1994
     57 H22        -0.0029   -3.7839    0.7400 H         1 <0>         0.4492
@<TRIPOS>BOND
     1    1    2 1
     2    1   37 1
     3    1   38 1
     4    1   39 1
     5    2    7 1
     6    2    3 2
     7    3    4 1
     8    3   24 1
     9    4    5 1
    10    4   16 1
    11    4   40 1
    12    5    6 2
    13    5   57 1
    14    6    7 1
    15    6    8 1
    16    7   41 1
    17    8   13 ar
    18    8    9 ar
    19    9   10 ar
    20    9   42 1
    21   10   11 ar
    22   10   43 1
    23   11   12 ar
    24   11   14 1
    25   12   13 ar
    26   12   44 1
    27   13   45 1
    28   14   15 1
    29   15   46 1
    30   15   47 1
    31   15   48 1
    32   16   21 ar
    33   16   17 ar
    34   17   18 ar
    35   17   49 1
    36   18   19 ar
    37   18   50 1
    38   19   20 ar
    39   19   23 1
    40   20   21 ar
    41   20   51 1
    42   21   22 1
    43   24   25 2
    44   24   26 am
    45   26   27 1
    46   26   52 1
    47   27   32 ar
    48   27   28 ar
    49   28   29 ar
    50   28   53 1
    51   29   30 ar
    52   29   54 1
    53   30   35 1
    54   30   31 ar
    55   31   32 ar
    56   31   33 1
    57   32   55 1
    58   33   34 2
    59   33   56 1
    60   34   35 1
    61   35   36 1
@<TRIPOS>MOLECULE
CHEMBL520828__2
   55    59     0     0     0
SMALL
USER_CHARGES

@<TRIPOS>ATOM
      1 C1         -0.3596    1.6420    0.8553 C.3       1 <0>        -0.1047
      2 C2         -0.2648    0.1479    0.6830 C.2       1 <0>         0.3079
      3 C3         -1.4162   -0.5927    0.3955 C.2       1 <0>        -0.4565
      4 C4         -1.2419   -2.0921    0.2355 C.3       1 <0>         0.2189
      5 N1          0.1270   -2.6116    0.4005 N.2       1 <0>        -0.5941
      6 C5          1.0909   -1.7670    0.6696 C.2       1 <0>         0.4014
      7 N2          0.8995   -0.4498    0.7986 N.2       1 <0>        -0.6622
      8 C6          2.4649   -2.2973    0.8341 C.ar      1 <0>        -0.0548
      9 C7          2.7077   -3.6640    0.6964 C.ar      1 <0>        -0.0417
     10 C8          3.9866   -4.1540    0.8495 C.ar      1 <0>        -0.1648
     11 C9          5.0334   -3.2885    1.1406 C.ar      1 <0>         0.1233
     12 C10         4.7949   -1.9270    1.2783 C.ar      1 <0>        -0.2219
     13 C11         3.5190   -1.4301    1.1212 C.ar      1 <0>        -0.0365
     14 O1          6.2924   -3.7744    1.2913 O.3       1 <0>        -0.3217
     15 C12         7.3214   -2.8289    1.5898 C.3       1 <0>         0.0288
     16 C13        -2.1278   -2.7770    1.2441 C.ar      1 <0>        -0.0563
     17 C14        -3.2864   -3.4075    0.8310 C.ar      1 <0>        -0.0398
     18 C15        -4.0993   -4.0359    1.7552 C.ar      1 <0>        -0.1287
     19 C16        -3.7541   -4.0350    3.0953 C.ar      1 <0>        -0.0216
     20 C17        -2.5951   -3.4050    3.5103 C.ar      1 <0>        -0.1638
     21 C18        -1.7781   -2.7796    2.5837 C.ar      1 <0>         0.1223
     22 F1         -0.6432   -2.1679    2.9872 F         1 <0>        -0.1291
     23 Cl1        -4.7763   -4.8241    4.2555 Cl        1 <0>        -0.0841
     24 C19        -2.6496    0.0100    0.2643 C.2       1 <0>         0.5314
     25 O2         -3.7567   -0.7456    0.1096 O.3       1 <0>        -0.6383
     26 N3         -2.7506    1.3739    0.2910 N.pl3     1 <0>        -0.7031
     27 C20        -3.5606    1.9971    1.2478 C.ar      1 <0>         0.1903
     28 C21        -4.1582    1.2362    2.2537 C.ar      1 <0>        -0.0934
     29 C22        -4.9515    1.8244    3.1956 C.ar      1 <0>        -0.1084
     30 C23        -5.1739    3.1991    3.1618 C.ar      1 <0>         0.0836
     31 C24        -4.5757    3.9765    2.1519 C.ar      1 <0>        -0.1389
     32 C25        -3.7597    3.3624    1.1950 C.ar      1 <0>        -0.1350
     33 C26        -4.9969    5.3535    2.3897 C.2       1 <0>         0.0634
     34 N4         -5.7659    5.3587    3.4409 N.2       1 <0>        -0.2573
     35 N5         -5.9004    4.0608    3.9443 N.pl3     1 <0>        -0.5148
     36 H1         -6.4237    3.8100    4.7216 H         1 <0>         0.4349
     37 H2          0.6122    2.0357    1.1532 H         1 <0>         0.0624
     38 H3         -0.6628    2.0979   -0.0872 H         1 <0>         0.0648
     39 H4         -1.0965    1.8730    1.6244 H         1 <0>         0.0784
     40 H5         -1.5923   -2.3697   -0.7586 H         1 <0>         0.0538
     41 H6          1.8942   -4.3374    0.4704 H         1 <0>         0.1399
     42 H7          4.1752   -5.2121    0.7433 H         1 <0>         0.1268
     43 H8          5.6108   -1.2566    1.5047 H         1 <0>         0.1241
     44 H9          3.3349   -0.3709    1.2240 H         1 <0>         0.1386
     45 H10         8.2753   -3.3477    1.6843 H         1 <0>         0.0949
     46 H11         7.3848   -2.0952    0.7862 H         1 <0>         0.0538
     47 H12         7.0888   -2.3225    2.5266 H         1 <0>         0.0539
     48 H13        -3.5567   -3.4088   -0.2147 H         1 <0>         0.1329
     49 H14        -5.0047   -4.5277    1.4315 H         1 <0>         0.1280
     50 H15        -2.3253   -3.4040    4.5561 H         1 <0>         0.1316
     51 H16        -2.2611    1.9092   -0.3530 H         1 <0>         0.4050
     52 H17        -3.9912    0.1697    2.2869 H         1 <0>         0.1370
     53 H18        -5.4078    1.2231    3.9680 H         1 <0>         0.1222
     54 H19        -3.2932    3.9509    0.4189 H         1 <0>         0.1255
     55 H20        -4.7203    6.2145    1.7993 H         1 <0>         0.1917
@<TRIPOS>BOND
     1    1    2 1
     2    1   37 1
     3    1   38 1
     4    1   39 1
     5    2    7 2
     6    2    3 1
     7    3    4 1
     8    3   24 2
     9    4    5 1
    10    4   16 1
    11    4   40 1
    12    5    6 2
    13    6    7 1
    14    6    8 1
    15    8   13 ar
    16    8    9 ar
    17    9   10 ar
    18    9   41 1
    19   10   11 ar
    20   10   42 1
    21   11   12 ar
    22   11   14 1
    23   12   13 ar
    24   12   43 1
    25   13   44 1
    26   14   15 1
    27   15   45 1
    28   15   46 1
    29   15   47 1
    30   16   21 ar
    31   16   17 ar
    32   17   18 ar
    33   17   48 1
    34   18   19 ar
    35   18   49 1
    36   19   20 ar
    37   19   23 1
    38   20   21 ar
    39   20   50 1
    40   21   22 1
    41   24   25 1
    42   24   26 1
    43   26   27 1
    44   26   51 1
    45   27   32 ar
    46   27   28 ar
    47   28   29 ar
    48   28   52 1
    49   29   30 ar
    50   29   53 1
    51   30   35 1
    52   30   31 ar
    53   31   32 ar
    54   31   33 1
    55   32   54 1
    56   33   34 2
    57   33   55 1
    58   34   35 1
    59   35   36 1
@<TRIPOS>MOLECULE
CHEMBL520828__3
   57    61     0     0     0
SMALL
USER_CHARGES

@<TRIPOS>ATOM
      1 C1         -0.8349    1.1943   -1.7160 C.3       1 <0>        -0.1189
      2 C2         -0.5421   -0.0116   -0.8608 C.2       1 <0>         0.2212
      3 C3         -1.5200   -0.8901   -0.5730 C.2       1 <0>        -0.2617
      4 C4         -1.2518   -2.0924    0.2867 C.3       1 <0>         0.2105
      5 N1          0.1781   -2.3513    0.4018 N.pl3     1 <0>        -0.5824
      6 C5          1.0755   -1.4684    0.0972 C.cat     1 <0>         0.5916
      7 N2          0.7238   -0.2221   -0.3766 N.pl3     1 <0>        -0.6095
      8 C6          2.5068   -1.8053    0.2556 C.ar      1 <0>        -0.2033
      9 C7          2.9358   -3.1250    0.1037 C.ar      1 <0>        -0.0199
     10 C8          4.2701   -3.4352    0.2520 C.ar      1 <0>        -0.1457
     11 C9          5.1880   -2.4365    0.5525 C.ar      1 <0>         0.2048
     12 C10         4.7645   -1.1221    0.7044 C.ar      1 <0>        -0.2082
     13 C11         3.4327   -0.8036    0.5518 C.ar      1 <0>        -0.0087
     14 O1          6.5019   -2.7459    0.6984 O.3       1 <0>        -0.2957
     15 C12         7.3912   -1.6707    1.0070 C.3       1 <0>         0.0155
     16 C13        -1.8225   -1.8538    1.6610 C.ar      1 <0>        -0.1827
     17 C14        -1.8874   -0.5700    2.1690 C.ar      1 <0>        -0.0462
     18 C15        -2.4106   -0.3503    3.4292 C.ar      1 <0>        -0.1139
     19 C16        -2.8705   -1.4153    4.1836 C.ar      1 <0>         0.0176
     20 C17        -2.8067   -2.7004    3.6767 C.ar      1 <0>        -0.1407
     21 C18        -2.2870   -2.9199    2.4122 C.ar      1 <0>         0.1418
     22 F1         -2.2285   -4.1743    1.9140 F         1 <0>        -0.1222
     23 Cl1        -3.5270   -1.1383    5.7667 Cl        1 <0>        -0.0248
     24 C19        -2.8216   -0.6777   -1.0881 C.2       1 <0>         0.5730
     25 O2         -3.0793    0.3511   -1.6864 O.2       1 <0>        -0.5048
     26 N3         -3.7755   -1.6142   -0.9161 N.am      1 <0>        -0.6562
     27 C20        -5.0660   -1.3994   -1.4160 C.ar      1 <0>         0.0971
     28 C21        -5.5590   -0.0988   -1.5296 C.ar      1 <0>        -0.0688
     29 C22        -6.8136    0.1321   -2.0147 C.ar      1 <0>        -0.1207
     30 C23        -7.6194   -0.9355   -2.4037 C.ar      1 <0>         0.1244
     31 C24        -7.1321   -2.2517   -2.2935 C.ar      1 <0>        -0.1630
     32 C25        -5.8419   -2.4749   -1.7993 C.ar      1 <0>        -0.0629
     33 C26        -8.1980   -3.1258   -2.7729 C.2       1 <0>         0.0759
     34 N4         -9.2017   -2.3739   -3.1245 N.2       1 <0>        -0.2389
     35 N5         -8.8895   -1.0268   -2.9148 N.pl3     1 <0>        -0.5063
     36 H1         -9.4767   -0.2774   -3.1005 H         1 <0>         0.4435
     37 H2          0.0755    1.7804   -1.8414 H         1 <0>         0.0781
     38 H3         -1.1948    0.8688   -2.6920 H         1 <0>         0.1188
     39 H4         -1.5971    1.8057   -1.2331 H         1 <0>         0.1229
     40 H5         -1.7379   -2.9625   -0.1545 H         1 <0>         0.1368
     41 H6          1.3682    0.5029   -0.3637 H         1 <0>         0.4522
     42 H7          2.2228   -3.9019   -0.1295 H         1 <0>         0.1453
     43 H8          4.6027   -4.4560    0.1349 H         1 <0>         0.1587
     44 H9          5.4808   -0.3482    0.9379 H         1 <0>         0.1549
     45 H10         3.1049    0.2191    0.6657 H         1 <0>         0.1418
     46 H11         8.4076   -2.0542    1.0963 H         1 <0>         0.1170
     47 H12         7.3520   -0.9270    0.2111 H         1 <0>         0.0684
     48 H13         7.0922   -1.2110    1.9490 H         1 <0>         0.0682
     49 H14        -1.5287    0.2619    1.5810 H         1 <0>         0.1409
     50 H15        -2.4602    0.6532    3.8255 H         1 <0>         0.1527
     51 H16        -3.1656   -3.5318    4.2652 H         1 <0>         0.1606
     52 H17        -3.5682   -2.4370   -0.4460 H         1 <0>         0.4046
     53 H18        -4.9408    0.7345   -1.2298 H         1 <0>         0.1512
     54 H19        -7.1823    1.1438   -2.0967 H         1 <0>         0.1336
     55 H20        -5.4578   -3.4808   -1.7149 H         1 <0>         0.1326
     56 H21        -8.1610   -4.2038   -2.8266 H         1 <0>         0.2001
     57 H22         0.4695   -3.2202    0.7198 H         1 <0>         0.4495
@<TRIPOS>BOND
     1    1    2 1
     2    1   37 1
     3    1   38 1
     4    1   39 1
     5    2    7 1
     6    2    3 2
     7    3    4 1
     8    3   24 1
     9    4    5 1
    10    4   16 1
    11    4   40 1
    12    5    6 2
    13    5   57 1
    14    6    7 1
    15    6    8 1
    16    7   41 1
    17    8   13 ar
    18    8    9 ar
    19    9   10 ar
    20    9   42 1
    21   10   11 ar
    22   10   43 1
    23   11   12 ar
    24   11   14 1
    25   12   13 ar
    26   12   44 1
    27   13   45 1
    28   14   15 1
    29   15   46 1
    30   15   47 1
    31   15   48 1
    32   16   21 ar
    33   16   17 ar
    34   17   18 ar
    35   17   49 1
    36   18   19 ar
    37   18   50 1
    38   19   20 ar
    39   19   23 1
    40   20   21 ar
    41   20   51 1
    42   21   22 1
    43   24   25 2
    44   24   26 am
    45   26   27 1
    46   26   52 1
    47   27   32 ar
    48   27   28 ar
    49   28   29 ar
    50   28   53 1
    51   29   30 ar
    52   29   54 1
    53   30   35 1
    54   30   31 ar
    55   31   32 ar
    56   31   33 1
    57   32   55 1
    58   33   34 2
    59   33   56 1
    60   34   35 1
    61   35   36 1
@<TRIPOS>MOLECULE
CHEMBL599163
   52    55     0     0     0
SMALL
USER_CHARGES

@<TRIPOS>ATOM
      1 C1         -0.0866    1.4459    0.1898 C.ar      1 <0>        -0.1669
      2 C2          1.0902    2.1581    0.2966 C.ar      1 <0>         0.1029
      3 N1          2.2468    1.5383    0.4334 N.ar      1 <0>        -0.4865
      4 C3          2.3347    0.2226    0.4749 C.ar      1 <0>         0.0995
      5 C4          1.2071   -0.5660    0.3752 C.ar      1 <0>        -0.1447
      6 C5         -0.0399    0.0491    0.2290 C.ar      1 <0>         0.0209
      7 C6         -1.2790   -0.7578    0.1184 C.ar      1 <0>         0.0366
      8 C7         -2.4946   -0.1327   -0.1361 C.ar      1 <0>         0.1265
      9 N2         -3.6021   -0.8489   -0.2354 N.ar      1 <0>        -0.5022
     10 C8         -3.5570   -2.1651   -0.0927 C.ar      1 <0>         0.3891
     11 C9         -2.3321   -2.8000    0.1643 C.ar      1 <0>         0.2815
     12 N3         -1.2256   -2.0822    0.2577 N.ar      1 <0>        -0.4007
     13 N4         -2.2813   -4.1826    0.3147 N.pl3     1 <0>        -0.6486
     14 C10        -2.0669   -5.0608   -0.8454 C.3       1 <0>         0.1447
     15 C11        -0.9177   -6.0218   -0.5227 C.3       1 <0>         0.0406
     16 N5         -1.2053   -6.7179    0.7385 N.3       1 <0>        -0.5235
     17 C12        -1.2768   -5.7754    1.8631 C.3       1 <0>         0.0371
     18 C13        -2.4346   -4.8040    1.6390 C.3       1 <0>         0.1494
     19 C14        -0.2141   -7.7710    0.9965 C.3       1 <0>         0.0545
     20 C15        -0.6787   -8.6314    2.1733 C.3       1 <0>         0.0798
     21 O1         -1.8781   -9.3207    1.8152 O.3       1 <0>        -0.5588
     22 N6         -4.7219   -2.9166   -0.1969 N.pl3     1 <0>        -0.5902
     23 C16        -4.7971   -4.3849   -0.1985 C.3       1 <0>         0.1027
     24 C17        -6.2834   -4.7674   -0.3600 C.3       1 <0>        -0.1374
     25 C18        -6.9001   -3.4996   -1.0079 C.3       1 <0>        -0.1346
     26 C19        -6.0870   -2.3732   -0.3176 C.3       1 <0>         0.1117
     27 H1         -1.0304    1.9599    0.0821 H         1 <0>         0.1379
     28 H2          1.0643    3.2374    0.2674 H         1 <0>         0.1593
     29 H3          3.3024   -0.2433    0.5882 H         1 <0>         0.1568
     30 H4          1.2865   -1.6426    0.4092 H         1 <0>         0.1406
     31 H5         -2.5346    0.9403   -0.2526 H         1 <0>         0.1710
     32 H6         -2.9745   -5.6299   -1.0466 H         1 <0>         0.0741
     33 H7         -1.8076   -4.4596   -1.7168 H         1 <0>         0.0693
     34 H8         -0.8173   -6.7515   -1.3262 H         1 <0>         0.0817
     35 H9          0.0104   -5.4588   -0.4240 H         1 <0>         0.0380
     36 H10        -1.4368   -6.3264    2.7898 H         1 <0>         0.0819
     37 H11        -0.3437   -5.2158    1.9286 H         1 <0>         0.0377
     38 H12        -2.4183   -4.0330    2.4093 H         1 <0>         0.0689
     39 H13        -3.3783   -5.3479    1.6812 H         1 <0>         0.0707
     40 H14        -0.1082   -8.3954    0.1094 H         1 <0>         0.0833
     41 H15         0.7463   -7.3150    1.2366 H         1 <0>         0.0471
     42 H16         0.0966   -9.3562    2.4217 H         1 <0>         0.0479
     43 H17        -0.8699   -7.9937    3.0364 H         1 <0>         0.0451
     44 H18        -2.2306   -9.8866    2.5155 H         1 <0>         0.3751
     45 H19        -4.2188   -4.7847   -1.0315 H         1 <0>         0.0776
     46 H20        -4.4136   -4.7768    0.7435 H         1 <0>         0.0850
     47 H21        -6.3906   -5.6286   -1.0195 H         1 <0>         0.0842
     48 H22        -6.7385   -4.9646    0.6107 H         1 <0>         0.0762
     49 H23        -6.7417   -3.4956   -2.0864 H         1 <0>         0.0760
     50 H24        -7.9605   -3.4157   -0.7700 H         1 <0>         0.0852
     51 H25        -6.4973   -2.1558    0.6686 H         1 <0>         0.0657
     52 H26        -6.0845   -1.4748   -0.9349 H         1 <0>         0.0805
@<TRIPOS>BOND
     1    1    6 ar
     2    1    2 ar
     3    1   27 1
     4    2    3 ar
     5    2   28 1
     6    3    4 ar
     7    4    5 ar
     8    4   29 1
     9    5    6 ar
    10    5   30 1
    11    6    7 1
    12    7   12 ar
    13    7    8 ar
    14    8    9 ar
    15    8   31 1
    16    9   10 ar
    17   10   11 ar
    18   10   22 1
    19   11   12 ar
    20   11   13 1
    21   13   18 1
    22   13   14 1
    23   14   15 1
    24   14   32 1
    25   14   33 1
    26   15   16 1
    27   15   34 1
    28   15   35 1
    29   16   17 1
    30   16   19 1
    31   17   18 1
    32   17   36 1
    33   17   37 1
    34   18   38 1
    35   18   39 1
    36   19   20 1
    37   19   40 1
    38   19   41 1
    39   20   21 1
    40   20   42 1
    41   20   43 1
    42   21   44 1
    43   22   26 1
    44   22   23 1
    45   23   24 1
    46   23   45 1
    47   23   46 1
    48   24   25 1
    49   24   47 1
    50   24   48 1
    51   25   26 1
    52   25   49 1
    53   25   50 1
    54   26   51 1
    55   26   52 1
@<TRIPOS>MOLECULE
CHEMBL599163__1
   53    56     0     0     0
SMALL
USER_CHARGES

@<TRIPOS>ATOM
      1 C1         -0.0840    1.4440    0.1867 C.ar      1 <0>        -0.1628
      2 C2          1.0935    2.1551    0.2928 C.ar      1 <0>         0.1094
      3 N1          2.2495    1.5345    0.4304 N.ar      1 <0>        -0.4796
      4 C3          2.3362    0.2187    0.4734 C.ar      1 <0>         0.1019
      5 C4          1.2078   -0.5690    0.3745 C.ar      1 <0>        -0.1458
      6 C5         -0.0386    0.0471    0.2275 C.ar      1 <0>         0.0103
      7 C6         -1.2784   -0.7588    0.1178 C.ar      1 <0>         0.0517
      8 C7         -2.4934   -0.1327   -0.1376 C.ar      1 <0>         0.1431
      9 N2         -3.6016   -0.8480   -0.2361 N.ar      1 <0>        -0.4929
     10 C8         -3.5577   -2.1641   -0.0919 C.ar      1 <0>         0.3953
     11 C9         -2.3334   -2.7999    0.1659 C.ar      1 <0>         0.2502
     12 N3         -1.2263   -2.0830    0.2585 N.ar      1 <0>        -0.3964
     13 N4         -2.2839   -4.1824    0.3179 N.pl3     1 <0>        -0.6469
     14 C10        -2.0695   -5.0635   -0.8405 C.3       1 <0>         0.1115
     15 C11        -0.9340   -6.0367   -0.5068 C.3       1 <0>        -0.0228
     16 N5         -1.2470   -6.7428    0.7420 N.4       1 <0>        -0.3785
     17 C12        -1.2909   -5.7895    1.8580 C.3       1 <0>        -0.0273
     18 C13        -2.4385   -4.8037    1.6423 C.3       1 <0>         0.1167
     19 C14        -0.2130   -7.7529    1.0037 C.3       1 <0>        -0.0046
     20 C15        -0.6014   -8.5731    2.2355 C.3       1 <0>         0.0450
     21 O1         -1.7918   -9.3136    1.9587 O.3       1 <0>        -0.5803
     22 N6         -4.7233   -2.9146   -0.1953 N.pl3     1 <0>        -0.5916
     23 C16        -4.7997   -4.3829   -0.1968 C.3       1 <0>         0.1073
     24 C17        -6.2865   -4.7641   -0.3573 C.3       1 <0>        -0.1407
     25 C18        -6.9025   -3.4959   -1.0050 C.3       1 <0>        -0.1353
     26 C19        -6.0880   -2.3701   -0.3152 C.3       1 <0>         0.1085
     27 H1         -1.0272    1.9587    0.0783 H         1 <0>         0.1402
     28 H2          1.0686    3.2344    0.2624 H         1 <0>         0.1635
     29 H3          3.3035   -0.2480    0.5872 H         1 <0>         0.1584
     30 H4          1.2862   -1.6456    0.4097 H         1 <0>         0.1375
     31 H5         -2.5323    0.9401   -0.2553 H         1 <0>         0.1786
     32 H6         -2.9816   -5.6225   -1.0492 H         1 <0>         0.0918
     33 H7         -1.7958   -4.4656   -1.7098 H         1 <0>         0.1153
     34 H8         -0.8254   -6.7594   -1.3155 H         1 <0>         0.1385
     35 H9         -0.0033   -5.4821   -0.3873 H         1 <0>         0.1339
     36 H10        -1.4453   -6.3300    2.7919 H         1 <0>         0.1368
     37 H11        -0.3494   -5.2423    1.9059 H         1 <0>         0.1344
     38 H12        -2.4086   -4.0341    2.4137 H         1 <0>         0.1149
     39 H13        -3.3885   -5.3361    1.6885 H         1 <0>         0.0889
     40 H14        -0.1235   -8.4131    0.1410 H         1 <0>         0.1387
     41 H15         0.7414   -7.2579    1.1830 H         1 <0>         0.1417
     42 H16         0.2061   -9.2624    2.4824 H         1 <0>         0.0955
     43 H17        -0.7776   -7.9033    3.0772 H         1 <0>         0.0715
     44 H18        -2.0972   -9.8578    2.6974 H         1 <0>         0.4094
     45 H19        -4.2223   -4.7833   -1.0301 H         1 <0>         0.0708
     46 H20        -4.4160   -4.7750    0.7450 H         1 <0>         0.0725
     47 H21        -6.3948   -5.6253   -1.0167 H         1 <0>         0.0865
     48 H22        -6.7411   -4.9609    0.6136 H         1 <0>         0.0802
     49 H23        -6.7448   -3.4921   -2.0835 H         1 <0>         0.0790
     50 H24        -7.9627   -3.4110   -0.7664 H         1 <0>         0.0912
     51 H25        -6.4975   -2.1522    0.6711 H         1 <0>         0.0710
     52 H26        -6.0851   -1.4718   -0.9326 H         1 <0>         0.0860
     53 H27        -2.1434   -7.1975    0.6543 H         1 <0>         0.4282
@<TRIPOS>BOND
     1    1    6 ar
     2    1    2 ar
     3    1   27 1
     4    2    3 ar
     5    2   28 1
     6    3    4 ar
     7    4    5 ar
     8    4   29 1
     9    5    6 ar
    10    5   30 1
    11    6    7 1
    12    7   12 ar
    13    7    8 ar
    14    8    9 ar
    15    8   31 1
    16    9   10 ar
    17   10   11 ar
    18   10   22 1
    19   11   12 ar
    20   11   13 1
    21   13   18 1
    22   13   14 1
    23   14   15 1
    24   14   32 1
    25   14   33 1
    26   15   16 1
    27   15   34 1
    28   15   35 1
    29   16   17 1
    30   16   19 1
    31   16   53 1
    32   17   18 1
    33   17   36 1
    34   17   37 1
    35   18   38 1
    36   18   39 1
    37   19   20 1
    38   19   40 1
    39   19   41 1
    40   20   21 1
    41   20   42 1
    42   20   43 1
    43   21   44 1
    44   22   26 1
    45   22   23 1
    46   23   24 1
    47   23   45 1
    48   23   46 1
    49   24   25 1
    50   24   47 1
    51   24   48 1
    52   25   26 1
    53   25   49 1
    54   25   50 1
    55   26   51 1
    56   26   52 1
@<TRIPOS>MOLECULE
CHEMBL225434
   45    48     0     0     0
SMALL
USER_CHARGES

@<TRIPOS>ATOM
      1 C1          0.0645    1.9497    0.2322 C.ar      1 <0>        -0.0833
      2 C2          1.2187    2.6916    0.4001 C.ar      1 <0>        -0.1133
      3 C3          2.4538    2.0757    0.3218 C.ar      1 <0>        -0.0983
      4 C4          2.5346    0.7177    0.0762 C.ar      1 <0>        -0.1632
      5 C5          1.3803   -0.0244   -0.0908 C.ar      1 <0>        -0.0932
      6 C6          0.1453    0.5918   -0.0139 C.ar      1 <0>        -0.1126
      7 C7          3.8810    0.0464   -0.0102 C.3       1 <0>         0.0446
      8 N1          4.2819   -0.4203    1.3238 N.4       1 <0>        -0.3844
      9 C8          4.4709    0.7356    2.2086 C.3       1 <0>        -0.0072
     10 C9          4.8095    0.2521    3.6203 C.3       1 <0>        -0.1421
     11 C10         6.0979   -0.5746    3.5756 C.3       1 <0>         0.0760
     12 C11         5.9144   -1.7349    2.5932 C.3       1 <0>        -0.1780
     13 C12         5.5348   -1.1778    1.2195 C.3       1 <0>        -0.0026
     14 O1          6.3797   -1.0910    4.8778 O.3       1 <0>        -0.2969
     15 C13         7.6772   -1.3873    5.1570 C.ar      1 <0>         0.0835
     16 C14         8.0348   -1.7914    6.4423 C.ar      1 <0>        -0.0873
     17 C15         9.3316   -2.0931    6.7441 C.ar      1 <0>        -0.0946
     18 C16        10.3162   -1.9993    5.7636 C.ar      1 <0>         0.1053
     19 C17         9.9653   -1.5927    4.4624 C.ar      1 <0>        -0.1465
     20 C18         8.6307   -1.2918    4.1657 C.ar      1 <0>        -0.1398
     21 C19        11.1999   -1.5949    3.6843 C.2       1 <0>         0.0654
     22 N2         12.1668   -1.9695    4.4726 N.2       1 <0>        -0.2323
     23 N3         11.6694   -2.2268    5.7542 N.pl3     1 <0>        -0.5029
     24 H1         12.1964   -2.5185    6.5145 H         1 <0>         0.4450
     25 H2         -0.9006    2.4301    0.2978 H         1 <0>         0.1362
     26 H3          1.1556    3.7525    0.5920 H         1 <0>         0.1365
     27 H4          3.3556    2.6555    0.4522 H         1 <0>         0.1313
     28 H5          1.4434   -1.0852   -0.2830 H         1 <0>         0.1314
     29 H6         -0.7565    0.0121   -0.1447 H         1 <0>         0.1364
     30 H7          3.8202   -0.8038   -0.6895 H         1 <0>         0.1383
     31 H8          4.6183    0.7574   -0.3831 H         1 <0>         0.1364
     32 H9          5.2865    1.3522    1.8308 H         1 <0>         0.1319
     33 H10         3.5542    1.3247    2.2369 H         1 <0>         0.1398
     34 H11         4.9512    1.1118    4.2753 H         1 <0>         0.1219
     35 H12         3.9944   -0.3645    3.9992 H         1 <0>         0.1002
     36 H13         6.9239    0.0554    3.2454 H         1 <0>         0.0909
     37 H14         6.8458   -2.2955    2.5139 H         1 <0>         0.1196
     38 H15         5.1222   -2.3927    2.9507 H         1 <0>         0.1017
     39 H16         5.4036   -2.0013    0.5175 H         1 <0>         0.1378
     40 H17         6.3277   -0.5203    0.8628 H         1 <0>         0.1321
     41 H18         7.2773   -1.8663    7.2084 H         1 <0>         0.1429
     42 H19         9.5943   -2.4046    7.7443 H         1 <0>         0.1404
     43 H20         8.3509   -0.9832    3.1693 H         1 <0>         0.1306
     44 H21        11.2949   -1.3331    2.6409 H         1 <0>         0.1982
     45 H22         3.5604   -1.0159    1.7015 H         1 <0>         0.4242
@<TRIPOS>BOND
     1    1    6 ar
     2    1    2 ar
     3    1   25 1
     4    2    3 ar
     5    2   26 1
     6    3    4 ar
     7    3   27 1
     8    4    5 ar
     9    4    7 1
    10    5    6 ar
    11    5   28 1
    12    6   29 1
    13    7    8 1
    14    7   30 1
    15    7   31 1
    16    8   13 1
    17    8    9 1
    18    8   45 1
    19    9   10 1
    20    9   32 1
    21    9   33 1
    22   10   11 1
    23   10   34 1
    24   10   35 1
    25   11   12 1
    26   11   14 1
    27   11   36 1
    28   12   13 1
    29   12   37 1
    30   12   38 1
    31   13   39 1
    32   13   40 1
    33   14   15 1
    34   15   20 ar
    35   15   16 ar
    36   16   17 ar
    37   16   41 1
    38   17   18 ar
    39   17   42 1
    40   18   23 1
    41   18   19 ar
    42   19   20 ar
    43   19   21 1
    44   20   43 1
    45   21   22 2
    46   21   44 1
    47   22   23 1
    48   23   24 1
@<TRIPOS>MOLECULE
CHEMBL225582
   45    48     0     0     0
SMALL
USER_CHARGES

@<TRIPOS>ATOM
      1 C1          0.1041    2.1476    1.0339 C.ar      1 <0>        -0.0840
      2 C2          1.3457    2.7542    0.9967 C.ar      1 <0>        -0.1141
      3 C3          2.4801    1.9944    0.7806 C.ar      1 <0>        -0.0977
      4 C4          2.3729    0.6278    0.6022 C.ar      1 <0>        -0.1613
      5 C5          1.1314    0.0210    0.6403 C.ar      1 <0>        -0.0924
      6 C6         -0.0031    0.7811    0.8550 C.ar      1 <0>        -0.1127
      7 C7          3.6095   -0.2005    0.3656 C.3       1 <0>         0.0436
      8 N1          4.1460   -0.6584    1.6542 N.4       1 <0>        -0.3800
      9 C8          4.5890    0.5009    2.4378 C.3       1 <0>        -0.0133
     10 C9          5.0738    0.0367    3.8129 C.3       1 <0>        -0.1393
     11 C10         6.2421   -0.9372    3.6342 C.3       1 <0>        -0.1627
     12 C11         5.7897   -2.1055    2.7535 C.3       1 <0>         0.0624
     13 C12         5.2784   -1.5619    1.4176 C.3       1 <0>         0.0039
     14 O1          4.7412   -2.8204    3.4105 O.3       1 <0>        -0.3209
     15 C13         5.1115   -3.7754    4.3049 C.ar      1 <0>         0.0737
     16 C14         6.4575   -3.9358    4.6304 C.ar      1 <0>        -0.1471
     17 C15         6.8508   -4.8886    5.5254 C.ar      1 <0>        -0.0960
     18 C16         5.9043   -5.7152    6.1257 C.ar      1 <0>         0.1085
     19 C17         4.5425   -5.5611    5.8043 C.ar      1 <0>        -0.1453
     20 C18         4.1530   -4.5760    4.8890 C.ar      1 <0>        -0.0640
     21 C19         3.8203   -6.5594    6.5861 C.2       1 <0>         0.0746
     22 N2          4.6933   -7.2223    7.2896 N.2       1 <0>        -0.2313
     23 N3          5.9809   -6.7376    7.0378 N.pl3     1 <0>        -0.5041
     24 H1          6.7970   -7.0711    7.4422 H         1 <0>         0.4449
     25 H2         -0.7817    2.7406    1.2072 H         1 <0>         0.1358
     26 H3          1.4294    3.8219    1.1361 H         1 <0>         0.1359
     27 H4          3.4500    2.4684    0.7508 H         1 <0>         0.1307
     28 H5          1.0477   -1.0467    0.5006 H         1 <0>         0.1317
     29 H6         -0.9730    0.3070    0.8845 H         1 <0>         0.1363
     30 H7          3.3563   -1.0637   -0.2500 H         1 <0>         0.1373
     31 H8          4.3589    0.4034   -0.1460 H         1 <0>         0.1355
     32 H9          5.4043    1.0018    1.9157 H         1 <0>         0.1283
     33 H10         3.7574    1.1946    2.5614 H         1 <0>         0.1329
     34 H11         5.4040    0.8987    4.3926 H         1 <0>         0.1126
     35 H12         4.2592   -0.4641    4.3361 H         1 <0>         0.0932
     36 H13         7.0760   -0.4225    3.1570 H         1 <0>         0.0968
     37 H14         6.5543   -1.3145    4.6080 H         1 <0>         0.1005
     38 H15         6.6316   -2.7747    2.5759 H         1 <0>         0.1177
     39 H16         4.9557   -2.3911    0.7881 H         1 <0>         0.1394
     40 H17         6.0789   -1.0171    0.9172 H         1 <0>         0.1462
     41 H18         7.1977   -3.2990    4.1688 H         1 <0>         0.1362
     42 H19         7.8972   -5.0018    5.7678 H         1 <0>         0.1356
     43 H20         3.1102   -4.4471    4.6392 H         1 <0>         0.1391
     44 H21         2.7523   -6.7197    6.5824 H         1 <0>         0.2030
     45 H22         3.4255   -1.1496    2.1619 H         1 <0>         0.4299
@<TRIPOS>BOND
     1    1    6 ar
     2    1    2 ar
     3    1   25 1
     4    2    3 ar
     5    2   26 1
     6    3    4 ar
     7    3   27 1
     8    4    5 ar
     9    4    7 1
    10    5    6 ar
    11    5   28 1
    12    6   29 1
    13    7    8 1
    14    7   30 1
    15    7   31 1
    16    8   13 1
    17    8    9 1
    18    8   45 1
    19    9   10 1
    20    9   32 1
    21    9   33 1
    22   10   11 1
    23   10   34 1
    24   10   35 1
    25   11   12 1
    26   11   36 1
    27   11   37 1
    28   12   13 1
    29   12   14 1
    30   12   38 1
    31   13   39 1
    32   13   40 1
    33   14   15 1
    34   15   20 ar
    35   15   16 ar
    36   16   17 ar
    37   16   41 1
    38   17   18 ar
    39   17   42 1
    40   18   23 1
    41   18   19 ar
    42   19   20 ar
    43   19   21 1
    44   20   43 1
    45   21   22 2
    46   21   44 1
    47   22   23 1
    48   23   24 1
@<TRIPOS>MOLECULE
CHEMBL225582__1
   45    48     0     0     0
SMALL
USER_CHARGES

@<TRIPOS>ATOM
      1 C1         -0.2361    0.4485   -0.6389 C.ar      1 <0>        -0.0830
      2 C2          0.8296    1.3174   -0.4968 C.ar      1 <0>        -0.1135
      3 C3          2.1162    0.8223   -0.3952 C.ar      1 <0>        -0.0970
      4 C4          2.3371   -0.5417   -0.4354 C.ar      1 <0>        -0.1627
      5 C5          1.2713   -1.4106   -0.5766 C.ar      1 <0>        -0.0932
      6 C6         -0.0152   -0.9154   -0.6796 C.ar      1 <0>        -0.1129
      7 C7          3.7399   -1.0814   -0.3257 C.3       1 <0>         0.0462
      8 N1          4.0642   -1.3186    1.0873 N.4       1 <0>        -0.3765
      9 C8          4.0739   -0.0393    1.8069 C.3       1 <0>        -0.0174
     10 C9          4.3313   -0.2886    3.2946 C.3       1 <0>        -0.1406
     11 C10         5.6865   -0.9815    3.4635 C.3       1 <0>        -0.1669
     12 C11         5.6910   -2.2780    2.6485 C.3       1 <0>         0.0719
     13 C12         5.3833   -1.9550    1.1848 C.3       1 <0>        -0.0055
     14 O1          6.9765   -2.8952    2.7409 O.3       1 <0>        -0.2954
     15 C13         7.2022   -3.6930    3.8188 C.ar      1 <0>         0.0704
     16 C14         6.2405   -3.7894    4.8233 C.ar      1 <0>        -0.1495
     17 C15         6.4470   -4.5840    5.9140 C.ar      1 <0>        -0.0976
     18 C16         7.6289   -5.3108    6.0340 C.ar      1 <0>         0.1074
     19 C17         8.6062   -5.2208    5.0249 C.ar      1 <0>        -0.1439
     20 C18         8.3785   -4.4063    3.9093 C.ar      1 <0>        -0.0606
     21 C19         9.7060   -6.0856    5.4398 C.2       1 <0>         0.0763
     22 N2          9.3832   -6.6199    6.5829 N.2       1 <0>        -0.2320
     23 N3          8.1198   -6.1724    6.9825 N.pl3     1 <0>        -0.5049
     24 H1          7.6640   -6.4293    7.7993 H         1 <0>         0.4444
     25 H2         -1.2418    0.8351   -0.7137 H         1 <0>         0.1363
     26 H3          0.6570    2.3831   -0.4654 H         1 <0>         0.1366
     27 H4          2.9489    1.5012   -0.2849 H         1 <0>         0.1317
     28 H5          1.4439   -2.4762   -0.6084 H         1 <0>         0.1316
     29 H6         -0.8478   -1.5943   -0.7903 H         1 <0>         0.1365
     30 H7          3.8128   -2.0185   -0.8775 H         1 <0>         0.1393
     31 H8          4.4409   -0.3585   -0.7430 H         1 <0>         0.1382
     32 H9          4.8615    0.5976    1.4042 H         1 <0>         0.1325
     33 H10         3.1099    0.4541    1.6831 H         1 <0>         0.1361
     34 H11         4.3399    0.6626    3.8269 H         1 <0>         0.1196
     35 H12         3.5441   -0.9253    3.6984 H         1 <0>         0.0891
     36 H13         6.4791   -0.3238    3.1066 H         1 <0>         0.0962
     37 H14         5.8492   -1.2122    4.5163 H         1 <0>         0.1008
     38 H15         4.9320   -2.9560    3.0390 H         1 <0>         0.0926
     39 H16         5.3859   -2.8759    0.6017 H         1 <0>         0.1411
     40 H17         6.1429   -1.2772    0.7953 H         1 <0>         0.1422
     41 H18         5.3214   -3.2286    4.7379 H         1 <0>         0.1329
     42 H19         5.6933   -4.6487    6.6848 H         1 <0>         0.1346
     43 H20         9.1204   -4.3341    3.1277 H         1 <0>         0.1422
     44 H21        10.6239   -6.2530    4.8957 H         1 <0>         0.2039
     45 H22         3.3682   -1.9255    1.4937 H         1 <0>         0.4222
@<TRIPOS>BOND
     1    1    6 ar
     2    1    2 ar
     3    1   25 1
     4    2    3 ar
     5    2   26 1
     6    3    4 ar
     7    3   27 1
     8    4    5 ar
     9    4    7 1
    10    5    6 ar
    11    5   28 1
    12    6   29 1
    13    7    8 1
    14    7   30 1
    15    7   31 1
    16    8   13 1
    17    8    9 1
    18    8   45 1
    19    9   10 1
    20    9   32 1
    21    9   33 1
    22   10   11 1
    23   10   34 1
    24   10   35 1
    25   11   12 1
    26   11   36 1
    27   11   37 1
    28   12   13 1
    29   12   14 1
    30   12   38 1
    31   13   39 1
    32   13   40 1
    33   14   15 1
    34   15   20 ar
    35   15   16 ar
    36   16   17 ar
    37   16   41 1
    38   17   18 ar
    39   17   42 1
    40   18   23 1
    41   18   19 ar
    42   19   20 ar
    43   19   21 1
    44   20   43 1
    45   21   22 2
    46   21   44 1
    47   22   23 1
    48   23   24 1
@<TRIPOS>MOLECULE
CHEMBL1089116
   54    58     0     0     0
SMALL
USER_CHARGES

@<TRIPOS>ATOM
      1 C1         -1.7463   -1.6801   -0.6901 C.3       1 <0>        -0.1663
      2 C2         -0.2856   -2.0203   -0.3878 C.3       1 <0>         0.1290
      3 N1          0.5806   -1.3794   -1.3803 N.pl3     1 <0>        -0.3635
      4 C3          1.6148   -0.5584   -1.1102 C.2       1 <0>         0.0778
      5 C4          2.1644   -0.1738   -2.2985 C.2       1 <0>        -0.1943
      6 C5          1.4197   -0.7976   -3.3327 C.2       1 <0>         0.1386
      7 N2          0.4777   -1.5212   -2.7692 N.2       1 <0>        -0.2784
      8 C6          1.6638   -0.6619   -4.7888 C.ar      1 <0>        -0.0228
      9 C7          2.9661   -0.7027   -5.2854 C.ar      1 <0>        -0.0669
     10 C8          3.1904   -0.5768   -6.6398 C.ar      1 <0>        -0.1160
     11 C9          2.1199   -0.4089   -7.5100 C.ar      1 <0>         0.1672
     12 C10         0.8210   -0.3680   -7.0175 C.ar      1 <0>        -0.1448
     13 C11         0.5911   -0.4992   -5.6645 C.ar      1 <0>        -0.0708
     14 N3          2.3502   -0.2805   -8.8835 N.am      1 <0>        -0.6812
     15 C12         3.3510   -0.9699   -9.4663 C.2       1 <0>         0.7036
     16 O1          4.1045   -1.6394   -8.7864 O.2       1 <0>        -0.5507
     17 N4          3.5164   -0.9173  -10.8029 N.am      1 <0>        -0.6827
     18 C13         4.4856   -1.7160  -11.4199 C.ar      1 <0>         0.1606
     19 C14         5.1722   -1.2437  -12.5308 C.ar      1 <0>        -0.1459
     20 C15         6.1286   -2.0343  -13.1373 C.ar      1 <0>        -0.1005
     21 C16         6.4027   -3.2949  -12.6395 C.ar      1 <0>        -0.1344
     22 C17         5.7205   -3.7683  -11.5338 C.ar      1 <0>        -0.0999
     23 C18         4.7670   -2.9804  -10.9193 C.ar      1 <0>        -0.1183
     24 C19         3.3247    0.7287   -2.4760 C.ar      1 <0>         0.0902
     25 C20         4.5995    0.3567   -2.0470 C.ar      1 <0>        -0.1985
     26 C21         5.6558    1.2294   -2.2319 C.ar      1 <0>         0.1408
     27 N5          5.4913    2.4049   -2.8028 N.ar      1 <0>        -0.5035
     28 C22         4.3052    2.8178   -3.2325 C.ar      1 <0>         0.2876
     29 C23         3.1795    1.9875   -3.0882 C.ar      1 <0>        -0.1337
     30 C24         2.0519    2.7213   -3.6600 C.2       1 <0>        -0.1815
     31 C25         2.5344    3.8942   -4.1025 C.2       1 <0>         0.0562
     32 N6          3.8775    3.9708   -3.8462 N.pl3     1 <0>        -0.5837
     33 H1          4.4455    4.7231   -4.0747 H         1 <0>         0.4189
     34 H2         -1.8838   -0.5996   -0.6487 H         1 <0>         0.0611
     35 H3         -2.0050   -2.0413   -1.6855 H         1 <0>         0.0716
     36 H4         -2.3908   -2.1569    0.0483 H         1 <0>         0.0767
     37 H5         -0.0269   -1.6590    0.6075 H         1 <0>         0.0983
     38 H6         -0.1481   -3.1008   -0.4292 H         1 <0>         0.0877
     39 H7          1.9488   -0.2580   -0.1280 H         1 <0>         0.1781
     40 H8          3.7984   -0.8324   -4.6095 H         1 <0>         0.1252
     41 H9          4.1989   -0.6083   -7.0249 H         1 <0>         0.1419
     42 H10        -0.0092   -0.2371   -7.6957 H         1 <0>         0.1282
     43 H11        -0.4188   -0.4717   -5.2828 H         1 <0>         0.1291
     44 H12         1.7897    0.3047   -9.4166 H         1 <0>         0.4086
     45 H13         2.9635   -0.3257  -11.3371 H         1 <0>         0.4082
     46 H14         4.9583   -0.2594  -12.9203 H         1 <0>         0.1248
     47 H15         6.6626   -1.6677  -14.0014 H         1 <0>         0.1268
     48 H16         7.1510   -3.9113  -13.1155 H         1 <0>         0.1239
     49 H17         5.9366   -4.7535  -11.1476 H         1 <0>         0.1262
     50 H18         4.2379   -3.3488  -10.0528 H         1 <0>         0.1347
     51 H19         4.7591   -0.6018   -1.5755 H         1 <0>         0.1360
     52 H20         6.6417    0.9398   -1.8993 H         1 <0>         0.1604
     53 H21         1.0273    2.3846   -3.7166 H         1 <0>         0.1445
     54 H22         1.9487    4.6655   -4.5805 H         1 <0>         0.1757
@<TRIPOS>BOND
     1    1    2 1
     2    1   34 1
     3    1   35 1
     4    1   36 1
     5    2    3 1
     6    2   37 1
     7    2   38 1
     8    3    7 1
     9    3    4 1
    10    4    5 2
    11    4   39 1
    12    5    6 1
    13    5   24 1
    14    6    7 2
    15    6    8 1
    16    8   13 ar
    17    8    9 ar
    18    9   10 ar
    19    9   40 1
    20   10   11 ar
    21   10   41 1
    22   11   12 ar
    23   11   14 1
    24   12   13 ar
    25   12   42 1
    26   13   43 1
    27   14   15 am
    28   14   44 1
    29   15   16 2
    30   15   17 am
    31   17   18 1
    32   17   45 1
    33   18   23 ar
    34   18   19 ar
    35   19   20 ar
    36   19   46 1
    37   20   21 ar
    38   20   47 1
    39   21   22 ar
    40   21   48 1
    41   22   23 ar
    42   22   49 1
    43   23   50 1
    44   24   29 ar
    45   24   25 ar
    46   25   26 ar
    47   25   51 1
    48   26   27 ar
    49   26   52 1
    50   27   28 ar
    51   28   32 1
    52   28   29 ar
    53   29   30 1
    54   30   31 2
    55   30   53 1
    56   31   32 1
    57   31   54 1
    58   32   33 1
@<TRIPOS>MOLECULE
CHEMBL220241
   72    77     0     0     0
SMALL
USER_CHARGES

@<TRIPOS>ATOM
      1 C1          0.9411    2.8069    1.9922 C.3       1 <0>        -0.1686
      2 C2         -0.0727    2.1281    1.0689 C.3       1 <0>         0.0959
      3 N1         -1.4296    2.4004    1.5494 N.pl3     1 <0>        -0.4595
      4 C3         -2.1438    1.6440    2.4480 C.ar      1 <0>         0.1328
      5 C4         -1.9013    0.4785    3.1630 C.ar      1 <0>        -0.1853
      6 C5         -2.8893   -0.0064    4.0033 C.ar      1 <0>         0.3328
      7 N2         -4.0507    0.6220    4.1309 N.ar      1 <0>        -0.5158
      8 C6         -4.3280    1.7292    3.4750 C.ar      1 <0>         0.2345
      9 C7         -3.3890    2.2886    2.6064 C.ar      1 <0>        -0.0327
     10 N3         -3.3729    3.3845    1.8124 N.2       1 <0>        -0.4322
     11 C8         -2.2221    3.4608    1.1913 C.2       1 <0>         0.3221
     12 C9         -1.8366    4.5285    0.2427 C.2       1 <0>         0.1387
     13 C10        -2.6682    5.6738   -0.1485 C.2       1 <0>         0.3641
     14 N4         -1.9945    6.3978   -0.9992 N.2       1 <0>        -0.3504
     15 O1         -0.7349    5.7806   -1.1967 O.3       1 <0>         0.0421
     16 N5         -0.6939    4.6181   -0.3881 N.2       1 <0>        -0.2502
     17 N6         -3.9521    5.9403    0.3086 N.pl3     1 <0>        -0.8013
     18 O2         -2.6658   -1.1446    4.7082 O.3       1 <0>        -0.2405
     19 C11        -3.6120   -1.5386    5.6004 C.ar      1 <0>         0.1088
     20 C12        -4.7893   -2.1220    5.1522 C.ar      1 <0>        -0.1211
     21 C13        -5.7521   -2.5235    6.0583 C.ar      1 <0>        -0.0872
     22 C14        -5.5466   -2.3458    7.4129 C.ar      1 <0>        -0.1373
     23 C15        -4.3705   -1.7626    7.8673 C.ar      1 <0>         0.1569
     24 C16        -3.3999   -1.3634    6.9589 C.ar      1 <0>        -0.1170
     25 N7         -4.1625   -1.5828    9.2385 N.am      1 <0>        -0.6707
     26 C17        -3.4987   -0.4972    9.6827 C.2       1 <0>         0.5655
     27 O3         -3.0062    0.2812    8.8890 O.2       1 <0>        -0.5170
     28 C18        -3.3695   -0.2532   11.1324 C.ar      1 <0>        -0.1832
     29 C19        -3.9299   -1.1497   12.0463 C.ar      1 <0>        -0.0425
     30 C20        -3.8073   -0.9184   13.3982 C.ar      1 <0>        -0.1589
     31 C21        -3.1272    0.2048   13.8542 C.ar      1 <0>         0.1666
     32 C22        -2.5688    1.0991   12.9484 C.ar      1 <0>        -0.2214
     33 C23        -2.6816    0.8718   11.5950 C.ar      1 <0>        -0.0109
     34 O4         -3.0085    0.4291   15.1874 O.3       1 <0>        -0.2916
     35 C24        -2.2971    1.6023   15.5870 C.3       1 <0>         0.0627
     36 C25        -2.2675    1.6852   17.1145 C.3       1 <0>         0.0537
     37 N8         -1.4869    0.5623   17.6508 N.3       1 <0>        -0.5316
     38 C26        -1.7982    0.3341   19.0693 C.3       1 <0>         0.0184
     39 C27        -1.0098   -0.8787   19.5706 C.3       1 <0>         0.0628
     40 O5          0.3860   -0.6574   19.3515 O.3       1 <0>        -0.3848
     41 C28         0.7249   -0.4322   17.9804 C.3       1 <0>         0.0636
     42 C29        -0.0459    0.7852   17.4631 C.3       1 <0>         0.0134
     43 H1          1.9507    2.6043    1.6347 H         1 <0>         0.0863
     44 H2          0.7660    3.8827    1.9956 H         1 <0>         0.0635
     45 H3          0.8289    2.4173    3.0040 H         1 <0>         0.0651
     46 H4          0.0395    2.5178    0.0572 H         1 <0>         0.1087
     47 H5          0.1025    1.0523    1.0655 H         1 <0>         0.1010
     48 H6         -0.9592   -0.0405    3.0652 H         1 <0>         0.1471
     49 H7         -5.2872    2.2072    3.6094 H         1 <0>         0.1785
     50 H8         -4.3747    5.3415    0.9441 H         1 <0>         0.4311
     51 H9         -4.4263    6.7252   -0.0075 H         1 <0>         0.4188
     52 H10        -4.9530   -2.2619    4.0939 H         1 <0>         0.1282
     53 H11        -6.6672   -2.9768    5.7069 H         1 <0>         0.1352
     54 H12        -6.3009   -2.6602    8.1190 H         1 <0>         0.1315
     55 H13        -2.4829   -0.9135    7.3097 H         1 <0>         0.1458
     56 H14        -4.4960   -2.2393    9.8699 H         1 <0>         0.4120
     57 H15        -4.4588   -2.0225   11.6928 H         1 <0>         0.1326
     58 H16        -4.2403   -1.6106   14.1052 H         1 <0>         0.1399
     59 H17        -2.0414    1.9708   13.3067 H         1 <0>         0.1349
     60 H18        -2.2430    1.5644   10.8919 H         1 <0>         0.1393
     61 H19        -1.2770    1.5562   15.2058 H         1 <0>         0.0664
     62 H20        -2.7957    2.4842   15.1849 H         1 <0>         0.0715
     63 H21        -1.8075    2.6255   17.4184 H         1 <0>         0.0636
     64 H22        -3.2856    1.6372   17.5008 H         1 <0>         0.0899
     65 H23        -1.5199    1.2141   19.6492 H         1 <0>         0.0442
     66 H24        -2.8660    0.1460   19.1819 H         1 <0>         0.0890
     67 H25        -1.1935   -1.0172   20.6361 H         1 <0>         0.0998
     68 H26        -1.3269   -1.7689   19.0272 H         1 <0>         0.0615
     69 H27         1.7959   -0.2478   17.8958 H         1 <0>         0.0992
     70 H28         0.4583   -1.3094   17.3908 H         1 <0>         0.0611
     71 H29         0.1655    0.9263   16.4031 H         1 <0>         0.0850
     72 H30         0.2604    1.6724   18.0172 H         1 <0>         0.0454
@<TRIPOS>BOND
     1    1    2 1
     2    1   43 1
     3    1   44 1
     4    1   45 1
     5    2    3 1
     6    2   46 1
     7    2   47 1
     8    3   11 1
     9    3    4 1
    10    4    9 ar
    11    4    5 ar
    12    5    6 ar
    13    5   48 1
    14    6    7 ar
    15    6   18 1
    16    7    8 ar
    17    8    9 ar
    18    8   49 1
    19    9   10 1
    20   10   11 2
    21   11   12 1
    22   12   16 2
    23   12   13 1
    24   13   14 2
    25   13   17 1
    26   14   15 1
    27   15   16 1
    28   17   50 1
    29   17   51 1
    30   18   19 1
    31   19   24 ar
    32   19   20 ar
    33   20   21 ar
    34   20   52 1
    35   21   22 ar
    36   21   53 1
    37   22   23 ar
    38   22   54 1
    39   23   24 ar
    40   23   25 1
    41   24   55 1
    42   25   26 am
    43   25   56 1
    44   26   27 2
    45   26   28 1
    46   28   33 ar
    47   28   29 ar
    48   29   30 ar
    49   29   57 1
    50   30   31 ar
    51   30   58 1
    52   31   32 ar
    53   31   34 1
    54   32   33 ar
    55   32   59 1
    56   33   60 1
    57   34   35 1
    58   35   36 1
    59   35   61 1
    60   35   62 1
    61   36   37 1
    62   36   63 1
    63   36   64 1
    64   37   42 1
    65   37   38 1
    66   38   39 1
    67   38   65 1
    68   38   66 1
    69   39   40 1
    70   39   67 1
    71   39   68 1
    72   40   41 1
    73   41   42 1
    74   41   69 1
    75   41   70 1
    76   42   71 1
    77   42   72 1
@<TRIPOS>MOLECULE
CHEMBL220241__1
   73    78     0     0     0
SMALL
USER_CHARGES

@<TRIPOS>ATOM
      1 C1         -2.9013    3.5143    0.4744 C.3       1 <0>        -0.1680
      2 C2         -1.5488    2.8749    0.1535 C.3       1 <0>         0.0950
      3 N1         -1.2155    3.1167   -1.2524 N.pl3     1 <0>        -0.4590
      4 C3         -1.5461    2.3145   -2.3187 C.ar      1 <0>         0.1316
      5 C4         -2.2333    1.1176   -2.4720 C.ar      1 <0>        -0.1826
      6 C5         -2.3750    0.5879   -3.7435 C.ar      1 <0>         0.3292
      7 N2         -1.8675    1.2032   -4.8036 N.ar      1 <0>        -0.5177
      8 C6         -1.2084    2.3390   -4.7100 C.ar      1 <0>         0.2337
      9 C7         -1.0189    2.9441   -3.4662 C.ar      1 <0>        -0.0307
     10 N3         -0.4050    4.0767   -3.0511 N.2       1 <0>        -0.4332
     11 C8         -0.5207    4.1887   -1.7511 C.2       1 <0>         0.3265
     12 C9          0.0207    5.3024   -0.9418 C.2       1 <0>         0.1362
     13 C10         0.7614    6.4605   -1.4576 C.2       1 <0>         0.3635
     14 N4          1.0755    7.2278   -0.4505 N.2       1 <0>        -0.3480
     15 O1          0.5720    6.6275    0.7295 O.3       1 <0>         0.0446
     16 N5         -0.0829    5.4281    0.3563 N.2       1 <0>        -0.2493
     17 N6          1.0744    6.6981   -2.7896 N.pl3     1 <0>        -0.8016
     18 O2         -3.0444   -0.5814   -3.9082 O.3       1 <0>        -0.2413
     19 C11        -3.2557   -1.0225   -5.1760 C.ar      1 <0>         0.1116
     20 C12        -2.2141   -1.5919   -5.8959 C.ar      1 <0>        -0.1164
     21 C13        -2.4275   -2.0413   -7.1849 C.ar      1 <0>        -0.0859
     22 C14        -3.6777   -1.9257   -7.7616 C.ar      1 <0>        -0.1350
     23 C15        -4.7238   -1.3569   -7.0460 C.ar      1 <0>         0.1485
     24 C16        -4.5126   -0.9096   -5.7491 C.ar      1 <0>        -0.1163
     25 N7         -5.9892   -1.2399   -7.6297 N.am      1 <0>        -0.6660
     26 C17        -6.7630   -0.1718   -7.3526 C.2       1 <0>         0.5583
     27 O3         -6.4001    0.6441   -6.5273 O.2       1 <0>        -0.5083
     28 C18        -8.0506    0.0076   -8.0509 C.ar      1 <0>        -0.1559
     29 C19        -8.4722   -0.9319   -8.9956 C.ar      1 <0>        -0.0427
     30 C20        -9.6743   -0.7609   -9.6450 C.ar      1 <0>        -0.1467
     31 C21       -10.4682    0.3444   -9.3619 C.ar      1 <0>         0.1416
     32 C22       -10.0523    1.2815   -8.4232 C.ar      1 <0>        -0.2098
     33 C23        -8.8544    1.1145   -7.7650 C.ar      1 <0>        -0.0130
     34 O4        -11.6523    0.5094  -10.0041 O.3       1 <0>        -0.3247
     35 C24       -12.4182    1.6673   -9.6653 C.3       1 <0>         0.0227
     36 C25       -13.7102    1.6818  -10.4847 C.3       1 <0>        -0.0002
     37 N8        -14.5473    0.5378  -10.0994 N.4       1 <0>        -0.3874
     38 C26       -15.7196    0.4689  -10.9826 C.3       1 <0>        -0.0437
     39 C27       -16.5900   -0.7239  -10.5793 C.3       1 <0>         0.0354
     40 O5        -16.9727   -0.5861   -9.2081 O.3       1 <0>        -0.3555
     41 C28       -15.8639   -0.4907   -8.3096 C.3       1 <0>         0.0371
     42 C29       -14.9922    0.7025   -8.7087 C.3       1 <0>        -0.0506
     43 H1         -2.8477    4.5878    0.2931 H         1 <0>         0.0638
     44 H2         -3.6703    3.0763   -0.1619 H         1 <0>         0.0639
     45 H3         -3.1493    3.3344    1.5204 H         1 <0>         0.0871
     46 H4         -0.7798    3.3128    0.7898 H         1 <0>         0.1099
     47 H5         -1.6024    1.8014    0.3348 H         1 <0>         0.1015
     48 H6         -2.6495    0.6089   -1.6150 H         1 <0>         0.1472
     49 H7         -0.8118    2.8049   -5.6000 H         1 <0>         0.1787
     50 H8          0.7977    6.0675   -3.4727 H         1 <0>         0.4305
     51 H9          1.5697    7.4946   -3.0368 H         1 <0>         0.4193
     52 H10        -1.2356   -1.6833   -5.4480 H         1 <0>         0.1307
     53 H11        -1.6154   -2.4835   -7.7429 H         1 <0>         0.1374
     54 H12        -3.8418   -2.2775   -8.7694 H         1 <0>         0.1316
     55 H13        -5.3251   -0.4708   -5.1891 H         1 <0>         0.1448
     56 H14        -6.3101   -1.9275   -8.2340 H         1 <0>         0.4112
     57 H15        -7.8558   -1.7908   -9.2163 H         1 <0>         0.1404
     58 H16       -10.0006   -1.4863  -10.3755 H         1 <0>         0.1425
     59 H17       -10.6718    2.1391   -8.2064 H         1 <0>         0.1367
     60 H18        -8.5344    1.8403   -7.0320 H         1 <0>         0.1469
     61 H19       -12.6618    1.6438   -8.6032 H         1 <0>         0.0895
     62 H20       -11.8383    2.5637   -9.8854 H         1 <0>         0.1148
     63 H21       -14.2513    2.6086  -10.2936 H         1 <0>         0.1524
     64 H22       -13.4685    1.6143  -11.5454 H         1 <0>         0.1460
     65 H23       -16.2980    1.3883  -10.8916 H         1 <0>         0.1407
     66 H24       -15.3907    0.3466  -12.0146 H         1 <0>         0.1445
     67 H25       -17.4820   -0.7518  -11.2052 H         1 <0>         0.1437
     68 H26       -16.0249   -1.6470  -10.7085 H         1 <0>         0.0820
     69 H27       -16.2304   -0.3498   -7.2928 H         1 <0>         0.1430
     70 H28       -15.2740   -1.4059   -8.3611 H         1 <0>         0.0819
     71 H29       -14.1233    0.7536   -8.0526 H         1 <0>         0.1399
     72 H30       -15.5708    1.6219   -8.6185 H         1 <0>         0.1421
     73 H31       -14.0125   -0.3137  -10.1829 H         1 <0>         0.4297
@<TRIPOS>BOND
     1    1    2 1
     2    1   43 1
     3    1   44 1
     4    1   45 1
     5    2    3 1
     6    2   46 1
     7    2   47 1
     8    3   11 1
     9    3    4 1
    10    4    9 ar
    11    4    5 ar
    12    5    6 ar
    13    5   48 1
    14    6    7 ar
    15    6   18 1
    16    7    8 ar
    17    8    9 ar
    18    8   49 1
    19    9   10 1
    20   10   11 2
    21   11   12 1
    22   12   16 2
    23   12   13 1
    24   13   14 2
    25   13   17 1
    26   14   15 1
    27   15   16 1
    28   17   50 1
    29   17   51 1
    30   18   19 1
    31   19   24 ar
    32   19   20 ar
    33   20   21 ar
    34   20   52 1
    35   21   22 ar
    36   21   53 1
    37   22   23 ar
    38   22   54 1
    39   23   24 ar
    40   23   25 1
    41   24   55 1
    42   25   26 am
    43   25   56 1
    44   26   27 2
    45   26   28 1
    46   28   33 ar
    47   28   29 ar
    48   29   30 ar
    49   29   57 1
    50   30   31 ar
    51   30   58 1
    52   31   32 ar
    53   31   34 1
    54   32   33 ar
    55   32   59 1
    56   33   60 1
    57   34   35 1
    58   35   36 1
    59   35   61 1
    60   35   62 1
    61   36   37 1
    62   36   63 1
    63   36   64 1
    64   37   42 1
    65   37   38 1
    66   37   73 1
    67   38   39 1
    68   38   65 1
    69   38   66 1
    70   39   40 1
    71   39   67 1
    72   39   68 1
    73   40   41 1
    74   41   42 1
    75   41   69 1
    76   41   70 1
    77   42   71 1
    78   42   72 1
@<TRIPOS>MOLECULE
CHEMBL1078426
   32    35     0     0     0
SMALL
USER_CHARGES

@<TRIPOS>ATOM
      1 C1         -0.0167    1.3786    0.0096 C.ar      1 <0>        -0.0992
      2 C2          1.1696    2.0892    0.0021 C.ar      1 <0>        -0.1009
      3 C3          2.3774    1.4194   -0.0135 C.ar      1 <0>        -0.0868
      4 C4          2.3996    0.0309   -0.0212 C.ar      1 <0>         0.1023
      5 C5          1.2065   -0.6797   -0.0132 C.ar      1 <0>        -0.1019
      6 C6          0.0021   -0.0041    0.0020 C.ar      1 <0>        -0.1064
      7 N1          3.6225   -0.6512   -0.0375 N.pl3     1 <0>        -0.4206
      8 C7          4.1021   -1.4514   -1.0568 C.ar      1 <0>         0.0694
      9 C8          3.6084   -1.8316   -2.2971 C.ar      1 <0>        -0.1075
     10 C9          4.3538   -2.6660   -3.1029 C.ar      1 <0>        -0.0860
     11 C10         5.5934   -3.1281   -2.6823 C.ar      1 <0>        -0.1214
     12 C11         6.0963   -2.7653   -1.4656 C.ar      1 <0>        -0.0553
     13 C12         5.3586   -1.9191   -0.6303 C.ar      1 <0>         0.0508
     14 N2          5.5844   -1.3971    0.5988 N.2       1 <0>        -0.4516
     15 C13         4.5709   -0.6456    0.9523 C.2       1 <0>         0.3285
     16 C14         4.4647    0.0947    2.2285 C.2       1 <0>         0.1298
     17 C15         5.4718    0.1173    3.2969 C.2       1 <0>         0.3642
     18 N3          5.0285    0.8748    4.2620 N.2       1 <0>        -0.3525
     19 O1          3.7551    1.3653    3.8823 O.3       1 <0>         0.0400
     20 N4          3.4597    0.8466    2.5976 N.2       1 <0>        -0.2360
     21 N5          6.6877   -0.5535    3.2826 N.pl3     1 <0>        -0.8022
     22 H1         -0.9598    1.9046    0.0260 H         1 <0>         0.1334
     23 H2          1.1517    3.1690    0.0081 H         1 <0>         0.1352
     24 H3          3.3035    1.9749   -0.0201 H         1 <0>         0.1235
     25 H4          1.2205   -1.7596   -0.0195 H         1 <0>         0.1285
     26 H5         -0.9261   -0.5562    0.0079 H         1 <0>         0.1351
     27 H6          2.6444   -1.4758   -2.6294 H         1 <0>         0.1278
     28 H7          3.9705   -2.9623   -4.0681 H         1 <0>         0.1368
     29 H8          6.1658   -3.7816   -3.3238 H         1 <0>         0.1367
     30 H9          7.0617   -3.1311   -1.1484 H         1 <0>         0.1371
     31 H10         6.9329   -1.0968    2.5174 H         1 <0>         0.4307
     32 H11         7.2918   -0.4786    4.0378 H         1 <0>         0.4182
@<TRIPOS>BOND
     1    1    6 ar
     2    1    2 ar
     3    1   22 1
     4    2    3 ar
     5    2   23 1
     6    3    4 ar
     7    3   24 1
     8    4    5 ar
     9    4    7 1
    10    5    6 ar
    11    5   25 1
    12    6   26 1
    13    7   15 1
    14    7    8 1
    15    8   13 ar
    16    8    9 ar
    17    9   10 ar
    18    9   27 1
    19   10   11 ar
    20   10   28 1
    21   11   12 ar
    22   11   29 1
    23   12   13 ar
    24   12   30 1
    25   13   14 1
    26   14   15 2
    27   15   16 1
    28   16   20 2
    29   16   17 1
    30   17   18 2
    31   17   21 1
    32   18   19 1
    33   19   20 1
    34   21   31 1
    35   21   32 1
@<TRIPOS>MOLECULE
CHEMBL218868
   45    48     0     0     0
SMALL
USER_CHARGES

@<TRIPOS>ATOM
      1 C1         -0.0168    1.5102   -0.0036 C.3       1 <0>        -0.1682
      2 C2          0.0038   -0.0196    0.0036 C.3       1 <0>         0.0954
      3 N1          0.7123   -0.4929    1.1954 N.pl3     1 <0>        -0.4593
      4 C3          2.0605   -0.7409    1.2981 C.ar      1 <0>         0.1321
      5 C4          3.1440   -0.6558    0.4337 C.ar      1 <0>        -0.1845
      6 C5          4.4004   -0.9997    0.9031 C.ar      1 <0>         0.3291
      7 N2          4.5784   -1.4049    2.1537 N.ar      1 <0>        -0.5174
      8 C6          3.5838   -1.5021    3.0107 C.ar      1 <0>         0.2341
      9 C7          2.2834   -1.1749    2.6221 C.ar      1 <0>        -0.0322
     10 N3          1.0838   -1.1703    3.2490 N.2       1 <0>        -0.4326
     11 C8          0.1551   -0.7655    2.4184 C.2       1 <0>         0.3240
     12 C9         -1.2800   -0.6265    2.7494 C.2       1 <0>         0.1376
     13 C10        -1.8938   -0.9076    4.0533 C.2       1 <0>         0.3639
     14 N4         -3.1735   -0.6709    3.9635 N.2       1 <0>        -0.3496
     15 O1         -3.4460   -0.2389    2.6423 O.3       1 <0>         0.0430
     16 N5         -2.2202   -0.2264    1.9323 N.2       1 <0>        -0.2498
     17 N6         -1.2263   -1.3499    5.1879 N.pl3     1 <0>        -0.8014
     18 O2          5.4685   -0.9213    0.0691 O.3       1 <0>        -0.2401
     19 C11         6.7011   -1.1655    0.5864 C.ar      1 <0>         0.1088
     20 C12         7.0908   -2.4679    0.8678 C.ar      1 <0>        -0.1197
     21 C13         8.3438   -2.7176    1.3937 C.ar      1 <0>        -0.0880
     22 C14         9.2129   -1.6723    1.6413 C.ar      1 <0>        -0.1133
     23 C15         8.8286   -0.3673    1.3613 C.ar      1 <0>         0.1535
     24 C16         7.5723   -0.1149    0.8280 C.ar      1 <0>        -0.1426
     25 N7          9.7086    0.6912    1.6125 N.am      1 <0>        -0.6749
     26 C17        11.0339    0.5225    1.4345 C.2       1 <0>         0.5117
     27 O3         11.4718   -0.5689    1.1374 O.2       1 <0>        -0.5236
     28 C18        11.9716    1.6898    1.6047 C.3       1 <0>        -0.1722
     29 H1          1.0058    1.8873   -0.0151 H         1 <0>         0.0646
     30 H2         -0.5439    1.8623   -0.8903 H         1 <0>         0.0867
     31 H3         -0.5271    1.8709    0.8896 H         1 <0>         0.0637
     32 H4         -1.0188   -0.3968    0.0150 H         1 <0>         0.1091
     33 H5          0.5141   -0.3803   -0.8896 H         1 <0>         0.1014
     34 H6          3.0090   -0.3277   -0.5864 H         1 <0>         0.1473
     35 H7          3.7748   -1.8370    4.0196 H         1 <0>         0.1792
     36 H8         -0.2683   -1.4991    5.1597 H         1 <0>         0.4309
     37 H9         -1.7181   -1.5095    6.0086 H         1 <0>         0.4190
     38 H10         6.4135   -3.2869    0.6757 H         1 <0>         0.1283
     39 H11         8.6443   -3.7317    1.6120 H         1 <0>         0.1346
     40 H12        10.1915   -1.8702    2.0531 H         1 <0>         0.1437
     41 H13         7.2727    0.8986    0.6056 H         1 <0>         0.1322
     42 H14         9.3648    1.5464    1.9147 H         1 <0>         0.4132
     43 H15        12.3023    1.7420    2.6420 H         1 <0>         0.0993
     44 H16        12.8362    1.5592    0.9538 H         1 <0>         0.0995
     45 H17        11.4546    2.6125    1.3412 H         1 <0>         0.0837
@<TRIPOS>BOND
     1    1    2 1
     2    1   29 1
     3    1   30 1
     4    1   31 1
     5    2    3 1
     6    2   32 1
     7    2   33 1
     8    3   11 1
     9    3    4 1
    10    4    9 ar
    11    4    5 ar
    12    5    6 ar
    13    5   34 1
    14    6    7 ar
    15    6   18 1
    16    7    8 ar
    17    8    9 ar
    18    8   35 1
    19    9   10 1
    20   10   11 2
    21   11   12 1
    22   12   16 2
    23   12   13 1
    24   13   14 2
    25   13   17 1
    26   14   15 1
    27   15   16 1
    28   17   36 1
    29   17   37 1
    30   18   19 1
    31   19   24 ar
    32   19   20 ar
    33   20   21 ar
    34   20   38 1
    35   21   22 ar
    36   21   39 1
    37   22   23 ar
    38   22   40 1
    39   23   24 ar
    40   23   25 1
    41   24   41 1
    42   25   26 am
    43   25   42 1
    44   26   27 2
    45   26   28 1
    46   28   43 1
    47   28   44 1
    48   28   45 1
@<TRIPOS>MOLECULE
CHEMBL1078930
   32    35     0     0     0
SMALL
USER_CHARGES

@<TRIPOS>ATOM
      1 C1         -0.0164    1.3613    0.0095 C.ar      1 <0>        -0.1238
      2 C2          1.1675    2.0859    0.0021 C.ar      1 <0>        -0.0876
      3 C3          2.3841    1.4376   -0.0130 C.ar      1 <0>        -0.1089
      4 C4          2.4243    0.0498   -0.0209 C.ar      1 <0>         0.0687
      5 C5          1.2246   -0.6847   -0.0134 C.ar      1 <0>         0.0488
      6 C6          0.0021   -0.0041    0.0020 C.ar      1 <0>        -0.0559
      7 N1          1.5591   -1.9969   -0.0240 N.2       1 <0>        -0.4569
      8 C7          2.8634   -2.1187   -0.0374 C.2       1 <0>         0.3201
      9 N2          3.4446   -0.8794   -0.0361 N.pl3     1 <0>        -0.4599
     10 C8          4.8813   -0.5928   -0.0488 C.3       1 <0>         0.1345
     11 C9          5.3958   -0.5009    1.3891 C.3       1 <0>        -0.1770
     12 C10         5.9511    0.8462    1.8559 C.3       1 <0>        -0.1736
     13 C11         6.9020   -0.3227    1.5904 C.3       1 <0>        -0.1601
     14 C12         3.5980   -3.4029   -0.0511 C.2       1 <0>         0.1375
     15 C13         2.9927   -4.7406   -0.0583 C.2       1 <0>         0.3634
     16 N3          3.9522   -5.6245   -0.0700 N.2       1 <0>        -0.3523
     17 O1          5.1863   -4.9293   -0.0710 O.3       1 <0>         0.0399
     18 N4          4.8987   -3.5422   -0.0645 N.2       1 <0>        -0.2490
     19 N5          1.6320   -5.0175   -0.0531 N.pl3     1 <0>        -0.8018
     20 H1         -0.9620    1.8828    0.0259 H         1 <0>         0.1349
     21 H2          1.1354    3.1655    0.0079 H         1 <0>         0.1352
     22 H3          3.3019    2.0068   -0.0191 H         1 <0>         0.1262
     23 H4         -0.9252   -0.5577    0.0083 H         1 <0>         0.1351
     24 H5          5.4064   -1.3918   -0.5723 H         1 <0>         0.1094
     25 H6          5.0584    0.3538   -0.5594 H         1 <0>         0.0984
     26 H7          4.8582   -1.1046    2.1203 H         1 <0>         0.1071
     27 H8          5.9499    1.6669    1.1386 H         1 <0>         0.0977
     28 H9          5.7788    1.1290    2.8944 H         1 <0>         0.0985
     29 H10         7.3553   -0.8089    2.4543 H         1 <0>         0.1015
     30 H11         7.5263   -0.2709    0.6985 H         1 <0>         0.1008
     31 H12         0.9892   -4.2911   -0.0439 H         1 <0>         0.4311
     32 H13         1.3242   -5.9374   -0.0586 H         1 <0>         0.4180
@<TRIPOS>BOND
     1    1    6 ar
     2    1    2 ar
     3    1   20 1
     4    2    3 ar
     5    2   21 1
     6    3    4 ar
     7    3   22 1
     8    4    9 1
     9    4    5 ar
    10    5    6 ar
    11    5    7 1
    12    6   23 1
    13    7    8 2
    14    8    9 1
    15    8   14 1
    16    9   10 1
    17   10   11 1
    18   10   24 1
    19   10   25 1
    20   11   13 1
    21   11   12 1
    22   11   26 1
    23   12   13 1
    24   12   27 1
    25   12   28 1
    26   13   29 1
    27   13   30 1
    28   14   18 2
    29   14   15 1
    30   15   16 2
    31   15   19 1
    32   16   17 1
    33   17   18 1
    34   19   31 1
    35   19   32 1
@<TRIPOS>MOLECULE
CHEMBL1078820
   35    38     0     0     0
SMALL
USER_CHARGES

@<TRIPOS>ATOM
      1 C1         -0.0164    1.3613    0.0095 C.ar      1 <0>        -0.1242
      2 C2          1.1675    2.0859    0.0021 C.ar      1 <0>        -0.0880
      3 C3          2.3841    1.4376   -0.0130 C.ar      1 <0>        -0.1095
      4 C4          2.4243    0.0498   -0.0209 C.ar      1 <0>         0.0692
      5 C5          1.2246   -0.6847   -0.0134 C.ar      1 <0>         0.0485
      6 C6          0.0021   -0.0041    0.0020 C.ar      1 <0>        -0.0559
      7 N1          1.5591   -1.9969   -0.0240 N.2       1 <0>        -0.4578
      8 C7          2.8634   -2.1187   -0.0374 C.2       1 <0>         0.3183
      9 N2          3.4446   -0.8794   -0.0361 N.pl3     1 <0>        -0.4589
     10 C8          4.8813   -0.5928   -0.0488 C.3       1 <0>         0.1105
     11 C9          5.3958   -0.5009    1.3891 C.3       1 <0>        -0.1260
     12 C10         5.2711    0.9052    1.9992 C.3       1 <0>        -0.1362
     13 C11         6.6514    0.6665    2.6339 C.3       1 <0>        -0.1405
     14 C12         6.9201   -0.3229    1.4878 C.3       1 <0>        -0.1279
     15 C13         3.5980   -3.4029   -0.0511 C.2       1 <0>         0.1387
     16 C14         2.9927   -4.7406   -0.0583 C.2       1 <0>         0.3632
     17 N3          3.9522   -5.6245   -0.0700 N.2       1 <0>        -0.3523
     18 O1          5.1863   -4.9293   -0.0710 O.3       1 <0>         0.0395
     19 N4          4.8987   -3.5422   -0.0645 N.2       1 <0>        -0.2510
     20 N5          1.6320   -5.0175   -0.0531 N.pl3     1 <0>        -0.8017
     21 H1         -0.9620    1.8828    0.0259 H         1 <0>         0.1345
     22 H2          1.1354    3.1655    0.0079 H         1 <0>         0.1348
     23 H3          3.3019    2.0068   -0.0191 H         1 <0>         0.1257
     24 H4         -0.9252   -0.5577    0.0083 H         1 <0>         0.1346
     25 H5          5.4064   -1.3918   -0.5723 H         1 <0>         0.1064
     26 H6          5.0584    0.3538   -0.5594 H         1 <0>         0.0979
     27 H7          5.0062   -1.2923    2.0295 H         1 <0>         0.0933
     28 H8          5.2638    1.7039    1.2575 H         1 <0>         0.0825
     29 H9          4.4653    0.9952    2.7276 H         1 <0>         0.0683
     30 H10         7.2985    1.5434    2.6144 H         1 <0>         0.0723
     31 H11         6.6049    0.1953    3.6157 H         1 <0>         0.0816
     32 H12         7.4454   -1.2244    1.8033 H         1 <0>         0.0750
     33 H13         7.3636    0.1400    0.6062 H         1 <0>         0.0857
     34 H14         0.9892   -4.2911   -0.0439 H         1 <0>         0.4311
     35 H15         1.3242   -5.9374   -0.0586 H         1 <0>         0.4180
@<TRIPOS>BOND
     1    1    6 ar
     2    1    2 ar
     3    1   21 1
     4    2    3 ar
     5    2   22 1
     6    3    4 ar
     7    3   23 1
     8    4    9 1
     9    4    5 ar
    10    5    6 ar
    11    5    7 1
    12    6   24 1
    13    7    8 2
    14    8    9 1
    15    8   15 1
    16    9   10 1
    17   10   11 1
    18   10   25 1
    19   10   26 1
    20   11   14 1
    21   11   12 1
    22   11   27 1
    23   12   13 1
    24   12   28 1
    25   12   29 1
    26   13   14 1
    27   13   30 1
    28   13   31 1
    29   14   32 1
    30   14   33 1
    31   15   19 2
    32   15   16 1
    33   16   17 2
    34   16   20 1
    35   17   18 1
    36   18   19 1
    37   20   34 1
    38   20   35 1
@<TRIPOS>MOLECULE
CHEMBL483396
   49    53     0     0     0
SMALL
USER_CHARGES

@<TRIPOS>ATOM
      1 C1         -0.0116    1.4894    0.0738 C.3       1 <0>        -0.1048
      2 C2         -0.0019   -0.0169    0.0269 C.2       1 <0>         0.3037
      3 C3         -1.2071   -0.7221    0.1034 C.2       1 <0>        -0.4517
      4 C4         -1.1167   -2.2364    0.0497 C.3       1 <0>         0.2197
      5 N1          0.2364   -2.8054   -0.0778 N.2       1 <0>        -0.5811
      6 C5          1.2573   -1.9895   -0.1359 C.2       1 <0>         0.3955
      7 N2          1.1387   -0.6591   -0.0910 N.2       1 <0>        -0.6456
      8 C6          2.6172   -2.5712   -0.2638 C.ar      1 <0>         0.1501
      9 C7          2.7830   -3.9539   -0.3249 C.ar      1 <0>         0.0847
     10 N3          3.9945   -4.4667   -0.4387 N.ar      1 <0>        -0.4466
     11 C8          5.0481   -3.6707   -0.4945 C.ar      1 <0>         0.0376
     12 C9          4.8868   -2.2959   -0.4336 C.ar      1 <0>         0.0409
     13 N4          3.6795   -1.7750   -0.3259 N.ar      1 <0>        -0.3969
     14 C10        -1.9379   -2.7136   -1.1203 C.ar      1 <0>        -0.0484
     15 C11        -1.4150   -2.6597   -2.3989 C.ar      1 <0>        -0.0775
     16 C12        -2.1670   -3.0974   -3.4726 C.ar      1 <0>        -0.1650
     17 C13        -3.4445   -3.5902   -3.2673 C.ar      1 <0>         0.0732
     18 C14        -3.9672   -3.6438   -1.9862 C.ar      1 <0>        -0.1608
     19 C15        -3.2114   -3.2103   -0.9135 C.ar      1 <0>        -0.0490
     20 F1         -4.1807   -4.0181   -4.3162 F         1 <0>        -0.1533
     21 C16        -2.4188   -0.0733    0.2223 C.2       1 <0>         0.5362
     22 O1         -3.5474   -0.7840    0.4262 O.3       1 <0>        -0.6350
     23 N5         -2.4759    1.2901    0.1335 N.pl3     1 <0>        -0.7037
     24 C17        -2.9698    2.0410    1.2062 C.ar      1 <0>         0.1980
     25 C18        -3.4874    1.3755    2.3269 C.ar      1 <0>        -0.0871
     26 C19        -3.9787    2.0513    3.3939 C.ar      1 <0>        -0.0840
     27 C20        -3.9752    3.4633    3.3897 C.ar      1 <0>         0.0813
     28 C21        -3.4330    4.1643    2.2156 C.ar      1 <0>        -0.1533
     29 C22        -2.9313    3.4015    1.1393 C.ar      1 <0>        -0.1654
     30 C23        -3.5523    5.5164    2.4776 C.2       1 <0>         0.0439
     31 N6         -4.1108    5.6536    3.6890 N.pl3     1 <0>        -0.4363
     32 N7         -4.3671    4.3937    4.2417 N.2       1 <0>        -0.3071
     33 H1         -4.3077    6.5007    4.1187 H         1 <0>         0.4380
     34 H2          1.0136    1.8587    0.0984 H         1 <0>         0.0638
     35 H3         -0.5164    1.8772   -0.8110 H         1 <0>         0.0645
     36 H4         -0.5391    1.8217    0.9679 H         1 <0>         0.0809
     37 H5         -1.5679   -2.6353    0.9583 H         1 <0>         0.0585
     38 H6          1.9223   -4.6045   -0.2790 H         1 <0>         0.1805
     39 H7          6.0377   -4.0931   -0.5875 H         1 <0>         0.1645
     40 H8          5.7507   -1.6493   -0.4788 H         1 <0>         0.1662
     41 H9         -0.4186   -2.2749   -2.5588 H         1 <0>         0.1144
     42 H10        -1.7584   -3.0549   -4.4714 H         1 <0>         0.1216
     43 H11        -4.9637   -4.0277   -1.8250 H         1 <0>         0.1241
     44 H12        -3.6171   -3.2562    0.0863 H         1 <0>         0.1314
     45 H13        -2.1742    1.7367   -0.6729 H         1 <0>         0.4053
     46 H14        -3.4950    0.2956    2.3399 H         1 <0>         0.1458
     47 H15        -4.3714    1.5123    4.2434 H         1 <0>         0.1278
     48 H16        -2.5237    3.8922    0.2678 H         1 <0>         0.1199
     49 H17        -3.2491    6.3199    1.8227 H         1 <0>         0.1806
@<TRIPOS>BOND
     1    1    2 1
     2    1   34 1
     3    1   35 1
     4    1   36 1
     5    2    7 2
     6    2    3 1
     7    3    4 1
     8    3   21 2
     9    4    5 1
    10    4   14 1
    11    4   37 1
    12    5    6 2
    13    6    7 1
    14    6    8 1
    15    8   13 ar
    16    8    9 ar
    17    9   10 ar
    18    9   38 1
    19   10   11 ar
    20   11   12 ar
    21   11   39 1
    22   12   13 ar
    23   12   40 1
    24   14   19 ar
    25   14   15 ar
    26   15   16 ar
    27   15   41 1
    28   16   17 ar
    29   16   42 1
    30   17   18 ar
    31   17   20 1
    32   18   19 ar
    33   18   43 1
    34   19   44 1
    35   21   22 1
    36   21   23 1
    37   23   24 1
    38   23   45 1
    39   24   29 ar
    40   24   25 ar
    41   25   26 ar
    42   25   46 1
    43   26   27 ar
    44   26   47 1
    45   27   28 ar
    46   27   32 2
    47   28   29 ar
    48   28   30 2
    49   29   48 1
    50   30   49 1
    51   30   31 1
    52   31   33 1
    53   31   32 1
@<TRIPOS>MOLECULE
CHEMBL483396__1
   51    55     0     0     0
SMALL
USER_CHARGES

@<TRIPOS>ATOM
      1 C1         -0.0180    1.5023    0.0186 C.3       1 <0>        -0.1173
      2 C2          0.0020   -0.0044   -0.0083 C.2       1 <0>         0.2172
      3 C3         -1.1522   -0.6965   -0.0090 C.2       1 <0>        -0.2496
      4 C4         -1.1534   -2.1982   -0.0468 C.3       1 <0>         0.2054
      5 N1          0.1560   -2.7365    0.3007 N.pl3     1 <0>        -0.5524
      6 C5          1.2307   -2.0171    0.2976 C.cat     1 <0>         0.5908
      7 N2          1.1967   -0.6776   -0.0379 N.pl3     1 <0>        -0.6049
      8 C6          2.5250   -2.6439    0.6566 C.ar      1 <0>         0.0049
      9 C7          3.6929   -1.8818    0.6640 C.ar      1 <0>         0.1323
     10 N3          4.8434   -2.4448    0.9844 N.ar      1 <0>        -0.4190
     11 C8          4.8885   -3.7281    1.2975 C.ar      1 <0>         0.1314
     12 C9          3.7298   -4.4885    1.2912 C.ar      1 <0>         0.0820
     13 N4          2.5752   -3.9332    0.9777 N.ar      1 <0>        -0.4027
     14 C10        -1.5235   -2.6569   -1.4337 C.ar      1 <0>        -0.1526
     15 C11        -0.5704   -2.6676   -2.4350 C.ar      1 <0>        -0.0708
     16 C12        -0.9085   -3.0885   -3.7072 C.ar      1 <0>        -0.1418
     17 C13        -2.2025   -3.4995   -3.9787 C.ar      1 <0>         0.1337
     18 C14        -3.1563   -3.4883   -2.9751 C.ar      1 <0>        -0.1355
     19 C15        -2.8145   -3.0721   -1.7024 C.ar      1 <0>        -0.0645
     20 F1         -2.5343   -3.9107   -5.2221 F         1 <0>        -0.1221
     21 C16        -2.3837    0.0012    0.0269 C.2       1 <0>         0.5730
     22 O1         -2.3932    1.2185    0.0580 O.2       1 <0>        -0.5021
     23 N5         -3.5455   -0.6819    0.0265 N.am      1 <0>        -0.6618
     24 C17        -4.7607    0.0029    0.1527 C.ar      1 <0>         0.0930
     25 C18        -4.9119    1.2618   -0.4304 C.ar      1 <0>        -0.0627
     26 C19        -6.0877    1.9457   -0.3190 C.ar      1 <0>        -0.1212
     27 C20        -7.1554    1.3897    0.3819 C.ar      1 <0>         0.1269
     28 C21        -7.0140    0.1202    0.9737 C.ar      1 <0>        -0.1647
     29 C22        -5.8047   -0.5731    0.8483 C.ar      1 <0>        -0.0599
     30 C23        -8.2875   -0.1747    1.6227 C.2       1 <0>         0.0761
     31 N6         -9.0822    0.8368    1.4183 N.2       1 <0>        -0.2384
     32 N7         -8.4289    1.8162    0.6632 N.pl3     1 <0>        -0.5059
     33 H1         -8.8143    2.6611    0.3831 H         1 <0>         0.4439
     34 H2          1.0046    1.8795    0.0102 H         1 <0>         0.0790
     35 H3         -0.5498    1.8743   -0.8571 H         1 <0>         0.1213
     36 H4         -0.5234    1.8428    0.9223 H         1 <0>         0.1223
     37 H5         -1.8927   -2.5727    0.6612 H         1 <0>         0.1414
     38 H6          2.0114   -0.2151   -0.2893 H         1 <0>         0.4539
     39 H7          3.6563   -0.8333    0.4079 H         1 <0>         0.1821
     40 H8          5.8313   -4.1856    1.5588 H         1 <0>         0.2022
     41 H9          3.7717   -5.5367    1.5477 H         1 <0>         0.2038
     42 H10         0.4388   -2.3467   -2.2230 H         1 <0>         0.1179
     43 H11        -0.1638   -3.0965   -4.4893 H         1 <0>         0.1475
     44 H12        -4.1660   -3.8084   -3.1859 H         1 <0>         0.1534
     45 H13        -3.5572   -3.0675   -0.9183 H         1 <0>         0.1392
     46 H14        -3.5401   -1.6480   -0.0612 H         1 <0>         0.4011
     47 H15        -4.0890    1.7000   -0.9756 H         1 <0>         0.1466
     48 H16        -6.1904    2.9194   -0.7748 H         1 <0>         0.1340
     49 H17        -5.6880   -1.5493    1.2953 H         1 <0>         0.1327
     50 H18        -8.5281   -1.0718    2.1738 H         1 <0>         0.2004
     51 H19         0.2240   -3.6729    0.5446 H         1 <0>         0.4605
@<TRIPOS>BOND
     1    1    2 1
     2    1   34 1
     3    1   35 1
     4    1   36 1
     5    2    7 1
     6    2    3 2
     7    3    4 1
     8    3   21 1
     9    4    5 1
    10    4   14 1
    11    4   37 1
    12    5    6 2
    13    5   51 1
    14    6    7 1
    15    6    8 1
    16    7   38 1
    17    8   13 ar
    18    8    9 ar
    19    9   10 ar
    20    9   39 1
    21   10   11 ar
    22   11   12 ar
    23   11   40 1
    24   12   13 ar
    25   12   41 1
    26   14   19 ar
    27   14   15 ar
    28   15   16 ar
    29   15   42 1
    30   16   17 ar
    31   16   43 1
    32   17   18 ar
    33   17   20 1
    34   18   19 ar
    35   18   44 1
    36   19   45 1
    37   21   22 2
    38   21   23 am
    39   23   24 1
    40   23   46 1
    41   24   29 ar
    42   24   25 ar
    43   25   26 ar
    44   25   47 1
    45   26   27 ar
    46   26   48 1
    47   27   32 1
    48   27   28 ar
    49   28   29 ar
    50   28   30 1
    51   29   49 1
    52   30   31 2
    53   30   50 1
    54   31   32 1
    55   32   33 1
@<TRIPOS>MOLECULE
CHEMBL483396__2
   49    53     0     0     0
SMALL
USER_CHARGES

@<TRIPOS>ATOM
      1 C1         -0.0145    1.4909    0.0399 C.3       1 <0>        -0.1053
      2 C2         -0.0029   -0.0158    0.0111 C.2       1 <0>         0.3035
      3 C3         -1.2065   -0.7217    0.1037 C.2       1 <0>        -0.4519
      4 C4         -1.1143   -2.2364    0.0677 C.3       1 <0>         0.2197
      5 N1          0.2389   -2.8051   -0.0615 N.2       1 <0>        -0.5809
      6 C5          1.2582   -1.9885   -0.1359 C.2       1 <0>         0.3954
      7 N2          1.1379   -0.6578   -0.1063 N.2       1 <0>        -0.6456
      8 C6          2.6181   -2.5698   -0.2654 C.ar      1 <0>         0.1502
      9 C7          2.7856   -3.9528   -0.3109 C.ar      1 <0>         0.0847
     10 N3          3.9970   -4.4653   -0.4261 N.ar      1 <0>        -0.4466
     11 C8          5.0491   -3.6685   -0.4982 C.ar      1 <0>         0.0375
     12 C9          4.8862   -2.2933   -0.4529 C.ar      1 <0>         0.0409
     13 N4          3.6788   -1.7729   -0.3438 N.ar      1 <0>        -0.3969
     14 C10        -1.7293   -2.7736    1.3344 C.ar      1 <0>        -0.0452
     15 C11        -1.0030   -2.7690    2.5107 C.ar      1 <0>        -0.0763
     16 C12        -1.5661   -3.2609    3.6729 C.ar      1 <0>        -0.1655
     17 C13        -2.8582   -3.7584    3.6589 C.ar      1 <0>         0.0740
     18 C14        -3.5846   -3.7625    2.4802 C.ar      1 <0>        -0.1623
     19 C15        -3.0213   -3.2652    1.3203 C.ar      1 <0>        -0.0411
     20 F1         -3.4095   -4.2400    4.7944 F         1 <0>        -0.1537
     21 C16        -2.4184   -0.0733    0.2225 C.2       1 <0>         0.5345
     22 O1         -3.5468   -0.7843    0.4263 O.3       1 <0>        -0.6329
     23 N5         -2.4759    1.2901    0.1335 N.pl3     1 <0>        -0.7042
     24 C17        -2.9698    2.0410    1.2062 C.ar      1 <0>         0.1987
     25 C18        -3.4874    1.3755    2.3269 C.ar      1 <0>        -0.0864
     26 C19        -3.9787    2.0513    3.3939 C.ar      1 <0>        -0.0837
     27 C20        -3.9752    3.4633    3.3897 C.ar      1 <0>         0.0820
     28 C21        -3.4330    4.1643    2.2156 C.ar      1 <0>        -0.1534
     29 C22        -2.9313    3.4015    1.1393 C.ar      1 <0>        -0.1660
     30 C23        -3.5523    5.5164    2.4776 C.2       1 <0>         0.0435
     31 N6         -4.1108    5.6536    3.6890 N.pl3     1 <0>        -0.4365
     32 N7         -4.3671    4.3937    4.2417 N.2       1 <0>        -0.3068
     33 H1         -4.3077    6.5007    4.1187 H         1 <0>         0.4379
     34 H2          1.0103    1.8620    0.0529 H         1 <0>         0.0638
     35 H3         -0.5260    1.8673   -0.8461 H         1 <0>         0.0650
     36 H4         -0.5363    1.8332    0.9335 H         1 <0>         0.0809
     37 H5         -1.7131   -2.5927   -0.7705 H         1 <0>         0.0556
     38 H6          1.9261   -4.6041   -0.2517 H         1 <0>         0.1805
     39 H7          6.0387   -4.0907   -0.5925 H         1 <0>         0.1645
     40 H8          5.7488   -1.6461   -0.5114 H         1 <0>         0.1662
     41 H9          0.0049   -2.3812    2.5213 H         1 <0>         0.1128
     42 H10        -0.9985   -3.2576    4.5917 H         1 <0>         0.1208
     43 H11        -4.5923   -4.1506    2.4680 H         1 <0>         0.1229
     44 H12        -3.5893   -3.2642    0.4017 H         1 <0>         0.1274
     45 H13        -2.1744    1.7367   -0.6730 H         1 <0>         0.4052
     46 H14        -3.4950    0.2956    2.3399 H         1 <0>         0.1455
     47 H15        -4.3714    1.5123    4.2434 H         1 <0>         0.1272
     48 H16        -2.5237    3.8922    0.2678 H         1 <0>         0.1200
     49 H17        -3.2491    6.3199    1.8227 H         1 <0>         0.1805
@<TRIPOS>BOND
     1    1    2 1
     2    1   34 1
     3    1   35 1
     4    1   36 1
     5    2    7 2
     6    2    3 1
     7    3    4 1
     8    3   21 2
     9    4    5 1
    10    4   14 1
    11    4   37 1
    12    5    6 2
    13    6    7 1
    14    6    8 1
    15    8   13 ar
    16    8    9 ar
    17    9   10 ar
    18    9   38 1
    19   10   11 ar
    20   11   12 ar
    21   11   39 1
    22   12   13 ar
    23   12   40 1
    24   14   19 ar
    25   14   15 ar
    26   15   16 ar
    27   15   41 1
    28   16   17 ar
    29   16   42 1
    30   17   18 ar
    31   17   20 1
    32   18   19 ar
    33   18   43 1
    34   19   44 1
    35   21   22 1
    36   21   23 1
    37   23   24 1
    38   23   45 1
    39   24   29 ar
    40   24   25 ar
    41   25   26 ar
    42   25   46 1
    43   26   27 ar
    44   26   47 1
    45   27   28 ar
    46   27   32 2
    47   28   29 ar
    48   28   30 2
    49   29   48 1
    50   30   49 1
    51   30   31 1
    52   31   33 1
    53   31   32 1
@<TRIPOS>MOLECULE
CHEMBL483396__3
   51    55     0     0     0
SMALL
USER_CHARGES

@<TRIPOS>ATOM
      1 C1         -0.0179    1.5019    0.0212 C.3       1 <0>        -0.1172
      2 C2          0.0022   -0.0048    0.0048 C.2       1 <0>         0.2167
      3 C3         -1.1521   -0.6969    0.0031 C.2       1 <0>        -0.2492
      4 C4         -1.1530   -2.1991   -0.0009 C.3       1 <0>         0.2060
      5 N1          0.1507   -2.7273   -0.3833 N.pl3     1 <0>        -0.5533
      6 C5          1.2255   -2.0081   -0.3767 C.cat     1 <0>         0.5905
      7 N2          1.1970   -0.6783   -0.0141 N.pl3     1 <0>        -0.6036
      8 C6          2.5141   -2.6246   -0.7718 C.ar      1 <0>         0.0050
      9 C7          3.6839   -1.8654   -0.7650 C.ar      1 <0>         0.1319
     10 N3          4.8294   -2.4193   -1.1178 N.ar      1 <0>        -0.4189
     11 C8          4.8677   -3.6907   -1.4768 C.ar      1 <0>         0.1312
     12 C9          3.7071   -4.4482   -1.4848 C.ar      1 <0>         0.0820
     13 N4          2.5593   -3.9047   -1.1285 N.ar      1 <0>        -0.4027
     14 C10        -1.5019   -2.6963    1.3783 C.ar      1 <0>        -0.1519
     15 C11        -0.5364   -2.7240    2.3673 C.ar      1 <0>        -0.0707
     16 C12        -0.8553   -3.1793    3.6325 C.ar      1 <0>        -0.1427
     17 C13        -2.1424   -3.6078    3.9095 C.ar      1 <0>         0.1340
     18 C14        -3.1087   -3.5796    2.9181 C.ar      1 <0>        -0.1372
     19 C15        -2.7888   -3.1190    1.6551 C.ar      1 <0>        -0.0625
     20 F1         -2.4552   -4.0535    5.1459 F         1 <0>        -0.1223
     21 C16        -2.3838    0.0013    0.0056 C.2       1 <0>         0.5734
     22 O1         -2.3935    1.2190    0.0093 O.2       1 <0>        -0.5021
     23 N5         -3.5456   -0.6818    0.0039 N.am      1 <0>        -0.6607
     24 C17        -4.7619    0.0048    0.1081 C.ar      1 <0>         0.0937
     25 C18        -4.9076    1.2544   -0.4959 C.ar      1 <0>        -0.0635
     26 C19        -6.0844    1.9399   -0.4062 C.ar      1 <0>        -0.1212
     27 C20        -7.1585    1.3948    0.2933 C.ar      1 <0>         0.1268
     28 C21        -7.0227    0.1346    0.9061 C.ar      1 <0>        -0.1645
     29 C22        -5.8123   -0.5604    0.8028 C.ar      1 <0>        -0.0584
     30 C23        -8.3022   -0.1502    1.5476 C.2       1 <0>         0.0760
     31 N6         -9.0950    0.8579    1.3201 N.2       1 <0>        -0.2382
     32 N7         -8.4346    1.8254    0.5560 N.pl3     1 <0>        -0.5058
     33 H1         -8.8173    2.6658    0.2591 H         1 <0>         0.4439
     34 H2          1.0048    1.8790    0.0153 H         1 <0>         0.0789
     35 H3         -0.5452    1.8679   -0.8597 H         1 <0>         0.1224
     36 H4         -0.5278    1.8487    0.9200 H         1 <0>         0.1213
     37 H5         -1.9033   -2.5539   -0.7076 H         1 <0>         0.1407
     38 H6          2.0179   -0.2227    0.2296 H         1 <0>         0.4535
     39 H7          3.6529   -0.8264   -0.4720 H         1 <0>         0.1819
     40 H8          5.8062   -4.1406   -1.7652 H         1 <0>         0.2021
     41 H9          3.7434   -5.4868   -1.7789 H         1 <0>         0.2038
     42 H10         0.4676   -2.3900    2.1509 H         1 <0>         0.1172
     43 H11        -0.1007   -3.2011    4.4049 H         1 <0>         0.1470
     44 H12        -4.1129   -3.9139    3.1329 H         1 <0>         0.1534
     45 H13        -3.5434   -3.0927    0.8829 H         1 <0>         0.1386
     46 H14        -3.5395   -1.6490   -0.0695 H         1 <0>         0.4015
     47 H15        -4.0796    1.6841   -1.0401 H         1 <0>         0.1468
     48 H16        -6.1828    2.9064   -0.8780 H         1 <0>         0.1341
     49 H17        -5.6999   -1.5295    1.2660 H         1 <0>         0.1316
     50 H18        -8.5481   -1.0386    2.1104 H         1 <0>         0.2001
     51 H19         0.2148   -3.6567   -0.6535 H         1 <0>         0.4605
@<TRIPOS>BOND
     1    1    2 1
     2    1   34 1
     3    1   35 1
     4    1   36 1
     5    2    7 1
     6    2    3 2
     7    3    4 1
     8    3   21 1
     9    4    5 1
    10    4   14 1
    11    4   37 1
    12    5    6 2
    13    5   51 1
    14    6    7 1
    15    6    8 1
    16    7   38 1
    17    8   13 ar
    18    8    9 ar
    19    9   10 ar
    20    9   39 1
    21   10   11 ar
    22   11   12 ar
    23   11   40 1
    24   12   13 ar
    25   12   41 1
    26   14   19 ar
    27   14   15 ar
    28   15   16 ar
    29   15   42 1
    30   16   17 ar
    31   16   43 1
    32   17   18 ar
    33   17   20 1
    34   18   19 ar
    35   18   44 1
    36   19   45 1
    37   21   22 2
    38   21   23 am
    39   23   24 1
    40   23   46 1
    41   24   29 ar
    42   24   25 ar
    43   25   26 ar
    44   25   47 1
    45   26   27 ar
    46   26   48 1
    47   27   32 1
    48   27   28 ar
    49   28   29 ar
    50   28   30 1
    51   29   49 1
    52   30   31 2
    53   30   50 1
    54   31   32 1
    55   32   33 1
@<TRIPOS>MOLECULE
CHEMBL1078929
   38    41     0     0     0
SMALL
USER_CHARGES

@<TRIPOS>ATOM
      1 C1          0.2757    1.5832    0.3143 C.ar      1 <0>        -0.1245
      2 C2          1.5333    2.1698    0.3514 C.ar      1 <0>        -0.0880
      3 C3          2.6692    1.3964    0.2416 C.ar      1 <0>        -0.1123
      4 C4          2.5535    0.0209    0.0928 C.ar      1 <0>         0.0713
      5 C5          1.2792   -0.5738    0.0552 C.ar      1 <0>         0.0479
      6 C6          0.1410    0.2321    0.1687 C.ar      1 <0>        -0.0552
      7 N1          1.4644   -1.9068   -0.0959 N.2       1 <0>        -0.4569
      8 C7          2.7466   -2.1695   -0.1531 C.2       1 <0>         0.3168
      9 N2          3.4630   -1.0085   -0.0408 N.pl3     1 <0>        -0.4570
     10 C8          4.9224   -0.8823   -0.0593 C.3       1 <0>         0.1250
     11 C9          5.3972   -0.2601    1.2553 C.3       1 <0>        -0.1289
     12 C10         6.9214   -0.1282    1.2359 C.3       1 <0>        -0.1167
     13 C11         7.3411    0.7660    0.0675 C.3       1 <0>        -0.1237
     14 C12         6.8663    0.1438   -1.2471 C.3       1 <0>        -0.1167
     15 C13         5.3421    0.0119   -1.2277 C.3       1 <0>        -0.1281
     16 C14         3.3324   -3.5186   -0.3140 C.2       1 <0>         0.1416
     17 C15         2.5883   -4.7844   -0.3239 C.2       1 <0>         0.3636
     18 N3          3.4399   -5.7591   -0.4869 N.2       1 <0>        -0.3513
     19 O1          4.7353   -5.1949   -0.5876 O.3       1 <0>         0.0399
     20 N4          4.6018   -3.7889   -0.4776 N.2       1 <0>        -0.2562
     21 N5          1.2135   -4.9207   -0.1833 N.pl3     1 <0>        -0.8013
     22 H1         -0.6052    2.2012    0.4061 H         1 <0>         0.1346
     23 H2          1.6224    3.2399    0.4668 H         1 <0>         0.1347
     24 H3          3.6449    1.8586    0.2707 H         1 <0>         0.1269
     25 H4         -0.8423   -0.2136    0.1415 H         1 <0>         0.1347
     26 H5          5.3709   -1.8687   -0.1773 H         1 <0>         0.1213
     27 H6          4.9487    0.7263    1.3733 H         1 <0>         0.0741
     28 H7          5.0982   -0.8971    2.0877 H         1 <0>         0.0697
     29 H8          7.2597    0.3151    2.1725 H         1 <0>         0.0735
     30 H9          7.3700   -1.1146    1.1179 H         1 <0>         0.0693
     31 H10         6.8926    1.7524    0.1855 H         1 <0>         0.0647
     32 H11         8.4270    0.8600    0.0537 H         1 <0>         0.0705
     33 H12         7.1653    0.7809   -2.0795 H         1 <0>         0.0735
     34 H13         7.3148   -0.8426   -1.3651 H         1 <0>         0.0698
     35 H14         5.0038   -0.4314   -2.1643 H         1 <0>         0.0702
     36 H15         4.8935    0.9983   -1.1097 H         1 <0>         0.0738
     37 H16         0.6577   -4.1344   -0.0658 H         1 <0>         0.4311
     38 H17         0.8090   -5.8021   -0.2026 H         1 <0>         0.4182
@<TRIPOS>BOND
     1    1    6 ar
     2    1    2 ar
     3    1   22 1
     4    2    3 ar
     5    2   23 1
     6    3    4 ar
     7    3   24 1
     8    4    9 1
     9    4    5 ar
    10    5    6 ar
    11    5    7 1
    12    6   25 1
    13    7    8 2
    14    8    9 1
    15    8   16 1
    16    9   10 1
    17   10   15 1
    18   10   11 1
    19   10   26 1
    20   11   12 1
    21   11   27 1
    22   11   28 1
    23   12   13 1
    24   12   29 1
    25   12   30 1
    26   13   14 1
    27   13   31 1
    28   13   32 1
    29   14   15 1
    30   14   33 1
    31   14   34 1
    32   15   35 1
    33   15   36 1
    34   16   20 2
    35   16   17 1
    36   17   18 2
    37   17   21 1
    38   18   19 1
    39   19   20 1
    40   21   37 1
    41   21   38 1
@<TRIPOS>MOLECULE
CHEMBL1078929__1
   39    42     0     0     0
SMALL
USER_CHARGES

@<TRIPOS>ATOM
      1 C1         -0.0532    1.2028    0.7312 C.ar      1 <0>        -0.0693
      2 C2          1.0956    1.9795    0.6677 C.ar      1 <0>        -0.0568
      3 C3          2.3135    1.4040    0.3743 C.ar      1 <0>        -0.0863
      4 C4          2.3905    0.0375    0.1409 C.ar      1 <0>         0.0866
      5 C5          1.2265   -0.7498    0.2052 C.ar      1 <0>         0.0594
      6 C6          0.0019   -0.1427    0.5047 C.ar      1 <0>        -0.0754
      7 N1          1.5919   -2.0262   -0.0616 N.pl3     1 <0>        -0.4660
      8 C7          2.8822   -2.0778   -0.2825 C.cat     1 <0>         0.4269
      9 N2          3.4223   -0.8252   -0.1687 N.pl3     1 <0>        -0.3861
     10 C8          4.8321   -0.4672   -0.3434 C.3       1 <0>         0.1198
     11 C9          5.3285   -0.9930   -1.6918 C.3       1 <0>        -0.1355
     12 C10         6.8008   -0.6191   -1.8742 C.3       1 <0>        -0.1154
     13 C11         7.6285   -1.2417   -0.7480 C.3       1 <0>        -0.1315
     14 C12         7.1321   -0.7159    0.6003 C.3       1 <0>        -0.1147
     15 C13         5.6597   -1.0898    0.7828 C.3       1 <0>        -0.1465
     16 C14         3.6417   -3.3058   -0.6056 C.2       1 <0>         0.0587
     17 C15         3.4412   -4.1564   -1.7855 C.2       1 <0>         0.3521
     18 N3          4.2923   -5.1434   -1.7285 N.2       1 <0>        -0.3056
     19 O1          5.0618   -4.9889   -0.5494 O.3       1 <0>         0.0879
     20 N4          4.6113   -3.8177    0.1079 N.2       1 <0>        -0.1846
     21 N5          2.5055   -3.9463   -2.7898 N.pl3     1 <0>        -0.8084
     22 H1         -0.9996    1.6668    0.9665 H         1 <0>         0.1622
     23 H2          1.0347    3.0424    0.8490 H         1 <0>         0.1621
     24 H3          3.2037    2.0135    0.3260 H         1 <0>         0.1555
     25 H4         -0.8982   -0.7373    0.5571 H         1 <0>         0.1584
     26 H5          4.9378    0.6173   -0.3151 H         1 <0>         0.1379
     27 H6          5.2228   -2.0775   -1.7201 H         1 <0>         0.0648
     28 H7          4.7389   -0.5494   -2.4941 H         1 <0>         0.0846
     29 H8          7.1545   -0.9937   -2.8348 H         1 <0>         0.0847
     30 H9          6.9065    0.4654   -1.8459 H         1 <0>         0.0779
     31 H10         7.5228   -2.3262   -0.7763 H         1 <0>         0.0682
     32 H11         8.6774   -0.9753   -0.8780 H         1 <0>         0.0825
     33 H12         7.7217   -1.1595    1.4026 H         1 <0>         0.0864
     34 H13         7.2377    0.3686    0.6286 H         1 <0>         0.0750
     35 H14         5.3061   -0.7153    1.7434 H         1 <0>         0.0838
     36 H15         5.5541   -2.1743    0.7545 H         1 <0>         0.0906
     37 H16         1.9613   -3.1434   -2.7855 H         1 <0>         0.4178
     38 H17         2.3960   -4.6026   -3.4957 H         1 <0>         0.4346
     39 H18         0.9901   -2.7866   -0.0850 H         1 <0>         0.4638
@<TRIPOS>BOND
     1    1    6 ar
     2    1    2 ar
     3    1   22 1
     4    2    3 ar
     5    2   23 1
     6    3    4 ar
     7    3   24 1
     8    4    9 1
     9    4    5 ar
    10    5    6 ar
    11    5    7 1
    12    6   25 1
    13    7    8 2
    14    7   39 1
    15    8    9 1
    16    8   16 1
    17    9   10 1
    18   10   15 1
    19   10   11 1
    20   10   26 1
    21   11   12 1
    22   11   27 1
    23   11   28 1
    24   12   13 1
    25   12   29 1
    26   12   30 1
    27   13   14 1
    28   13   31 1
    29   13   32 1
    30   14   15 1
    31   14   33 1
    32   14   34 1
    33   15   35 1
    34   15   36 1
    35   16   20 2
    36   16   17 1
    37   17   18 2
    38   17   21 1
    39   18   19 1
    40   19   20 1
    41   21   37 1
    42   21   38 1
@<TRIPOS>MOLECULE
CHEMBL591285
   52    55     0     0     0
SMALL
USER_CHARGES

@<TRIPOS>ATOM
      1 C1         -0.0923    1.4499    0.1986 C.ar      1 <0>        -0.1645
      2 C2          1.0831    2.1641    0.3074 C.ar      1 <0>         0.1076
      3 N1          2.2410    1.5462    0.4419 N.ar      1 <0>        -0.4824
      4 C3          2.3316    0.2305    0.4789 C.ar      1 <0>         0.1002
      5 C4          1.2055   -0.5601    0.3769 C.ar      1 <0>        -0.1463
      6 C5         -0.0428    0.0530    0.2331 C.ar      1 <0>         0.0152
      7 C6         -1.2803   -0.7560    0.1202 C.ar      1 <0>         0.0442
      8 C7         -2.4972   -0.1324   -0.1318 C.ar      1 <0>         0.1341
      9 N2         -3.6033   -0.8505   -0.2332 N.ar      1 <0>        -0.4975
     10 C8         -3.5555   -2.1671   -0.0948 C.ar      1 <0>         0.3899
     11 C9         -2.3293   -2.8004    0.1596 C.ar      1 <0>         0.2655
     12 N3         -1.2242   -2.0807    0.2551 N.ar      1 <0>        -0.3989
     13 N4         -2.2757   -4.1834    0.3054 N.pl3     1 <0>        -0.6430
     14 C10        -2.0617   -5.0513   -0.8606 C.3       1 <0>         0.1368
     15 C11        -0.8715   -5.9732   -0.5772 C.3       1 <0>        -0.1297
     16 C12        -1.1162   -6.7278    0.7315 C.3       1 <0>        -0.1109
     17 C13        -1.2377   -5.7280    1.8838 C.3       1 <0>        -0.1478
     18 C14        -2.4259   -4.8029    1.6292 C.3       1 <0>         0.1424
     19 C15         0.0548   -7.6753    1.0002 C.3       1 <0>        -0.0060
     20 N5         -0.2342   -8.4855    2.1910 N.4       1 <0>        -0.6389
     21 N6         -4.7189   -2.9206   -0.2012 N.pl3     1 <0>        -0.5921
     22 C16        -4.7916   -4.3890   -0.2034 C.3       1 <0>         0.1075
     23 C17        -6.2770   -4.7740   -0.3674 C.3       1 <0>        -0.1399
     24 C18        -6.8948   -3.5071   -1.0160 C.3       1 <0>        -0.1352
     25 C19        -6.0848   -2.3795   -0.3240 C.3       1 <0>         0.1096
     26 H1         -1.0371    1.9623    0.0929 H         1 <0>         0.1394
     27 H2          1.0551    3.2434    0.2819 H         1 <0>         0.1622
     28 H3          3.3003   -0.2339    0.5903 H         1 <0>         0.1571
     29 H4          1.2871   -1.6366    0.4073 H         1 <0>         0.1382
     30 H5         -2.5393    0.9409   -0.2447 H         1 <0>         0.1749
     31 H6         -2.9543   -5.6511   -1.0384 H         1 <0>         0.0701
     32 H7         -1.8494   -4.4396   -1.7374 H         1 <0>         0.0782
     33 H8         -0.7618   -6.6870   -1.3937 H         1 <0>         0.0822
     34 H9          0.0372   -5.3777   -0.4894 H         1 <0>         0.0809
     35 H10        -2.0381   -7.3038    0.6517 H         1 <0>         0.0959
     36 H11        -1.3886   -6.2672    2.8190 H         1 <0>         0.0643
     37 H12        -0.3256   -5.1348    1.9484 H         1 <0>         0.0857
     38 H13        -2.4539   -4.0274    2.3946 H         1 <0>         0.0773
     39 H14        -3.3489   -5.3820    1.6589 H         1 <0>         0.0665
     40 H15         0.1966   -8.3304    0.1406 H         1 <0>         0.1360
     41 H16         0.9615   -7.0940    1.1675 H         1 <0>         0.1345
     42 H17         0.5380   -9.1104    2.3681 H         1 <0>         0.4388
     43 H18        -0.3656   -7.8791    2.9866 H         1 <0>         0.4329
     44 H19        -4.2112   -4.7876   -1.0356 H         1 <0>         0.0737
     45 H20        -4.4090   -4.7805    0.7392 H         1 <0>         0.0763
     46 H21        -6.3816   -5.6352   -1.0273 H         1 <0>         0.0839
     47 H22        -6.7333   -4.9723    0.6024 H         1 <0>         0.0771
     48 H23        -6.7346   -3.5025   -2.0942 H         1 <0>         0.0779
     49 H24        -7.9557   -3.4251   -0.7799 H         1 <0>         0.0888
     50 H25        -6.4971   -2.1631    0.6615 H         1 <0>         0.0683
     51 H26        -6.0828   -1.4809   -0.9410 H         1 <0>         0.0839
     52 H27        -1.0736   -9.0236    2.0360 H         1 <0>         0.4349
@<TRIPOS>BOND
     1    1    6 ar
     2    1    2 ar
     3    1   26 1
     4    2    3 ar
     5    2   27 1
     6    3    4 ar
     7    4    5 ar
     8    4   28 1
     9    5    6 ar
    10    5   29 1
    11    6    7 1
    12    7   12 ar
    13    7    8 ar
    14    8    9 ar
    15    8   30 1
    16    9   10 ar
    17   10   11 ar
    18   10   21 1
    19   11   12 ar
    20   11   13 1
    21   13   18 1
    22   13   14 1
    23   14   15 1
    24   14   31 1
    25   14   32 1
    26   15   16 1
    27   15   33 1
    28   15   34 1
    29   16   17 1
    30   16   19 1
    31   16   35 1
    32   17   18 1
    33   17   36 1
    34   17   37 1
    35   18   38 1
    36   18   39 1
    37   19   20 1
    38   19   40 1
    39   19   41 1
    40   20   42 1
    41   20   43 1
    42   20   52 1
    43   21   25 1
    44   21   22 1
    45   22   23 1
    46   22   44 1
    47   22   45 1
    48   23   24 1
    49   23   46 1
    50   23   47 1
    51   24   25 1
    52   24   48 1
    53   24   49 1
    54   25   50 1
    55   25   51 1
@<TRIPOS>MOLECULE
CHEMBL223651
   48    51     0     0     0
SMALL
USER_CHARGES

@<TRIPOS>ATOM
      1 C1         -0.0167    1.3781    0.0096 C.ar      1 <0>        -0.0840
      2 C2          1.1709    2.0855    0.0021 C.ar      1 <0>        -0.1134
      3 C3          2.3773    1.4107   -0.0130 C.ar      1 <0>        -0.0981
      4 C4          2.3960    0.0285   -0.0201 C.ar      1 <0>        -0.1621
      5 C5          1.2084   -0.6789   -0.0117 C.ar      1 <0>        -0.0937
      6 C6          0.0021   -0.0041    0.0020 C.ar      1 <0>        -0.1129
      7 C7          3.7112   -0.7071   -0.0376 C.3       1 <0>         0.0442
      8 N1          4.1530   -0.9531    1.3416 N.4       1 <0>        -0.3829
      9 C8          4.4244    0.3290    2.0029 C.3       1 <0>        -0.0073
     10 C9          4.8069    0.0828    3.4639 C.3       1 <0>        -0.1545
     11 C10         6.0600   -0.7959    3.5167 C.3       1 <0>         0.1376
     12 C11         5.7896   -2.0995    2.7599 C.3       1 <0>        -0.1611
     13 C12         5.3707   -1.7725    1.3250 C.3       1 <0>        -0.0028
     14 N2          6.3878   -1.0985    4.9121 N.am      1 <0>        -0.7299
     15 C13         7.6554   -1.4002    5.2564 C.2       1 <0>         0.5756
     16 O1          8.5268   -1.4214    4.4090 O.2       1 <0>        -0.5308
     17 C14         7.9858   -1.7052    6.6631 C.ar      1 <0>        -0.1958
     18 C15         6.9775   -1.6860    7.6390 C.ar      1 <0>        -0.0413
     19 C16         7.2650   -1.9648    8.9405 C.ar      1 <0>        -0.1436
     20 C17         8.5718   -2.2737    9.3198 C.ar      1 <0>         0.1564
     21 C18         9.5947   -2.2967    8.3499 C.ar      1 <0>        -0.1932
     22 C19         9.2931   -2.0161    7.0162 C.ar      1 <0>         0.0420
     23 C20        10.8229   -2.6473    9.0582 C.2       1 <0>         0.0915
     24 N3         10.5231   -2.8083   10.3149 N.2       1 <0>        -0.2411
     25 N4          9.1568   -2.5887   10.5157 N.pl3     1 <0>        -0.5011
     26 H1          8.6969   -2.6500   11.3675 H         1 <0>         0.4455
     27 H2         -0.9591    1.9053    0.0259 H         1 <0>         0.1359
     28 H3          1.1563    3.1654    0.0076 H         1 <0>         0.1363
     29 H4          3.3051    1.9634   -0.0196 H         1 <0>         0.1314
     30 H5          1.2231   -1.7588   -0.0176 H         1 <0>         0.1312
     31 H6         -0.9258   -0.5567    0.0082 H         1 <0>         0.1361
     32 H7          3.5884   -1.6586   -0.5549 H         1 <0>         0.1379
     33 H8          4.4573   -0.1052   -0.5563 H         1 <0>         0.1365
     34 H9          5.2450    0.8337    1.4930 H         1 <0>         0.1327
     35 H10         3.5326    0.9544    1.9617 H         1 <0>         0.1367
     36 H11         5.0097    1.0357    3.9526 H         1 <0>         0.1196
     37 H12         3.9868   -0.4218    3.9748 H         1 <0>         0.0936
     38 H13         6.8936   -0.2703    3.0510 H         1 <0>         0.1071
     39 H14         6.6949   -2.7065    2.7454 H         1 <0>         0.1190
     40 H15         4.9899   -2.6494    3.2562 H         1 <0>         0.0906
     41 H16         5.1776   -2.6984    0.7833 H         1 <0>         0.1350
     42 H17         6.1712   -1.2229    0.8296 H         1 <0>         0.1332
     43 H18         5.6925   -1.0816    5.5883 H         1 <0>         0.4051
     44 H19         5.9632   -1.4472    7.3549 H         1 <0>         0.1294
     45 H20         6.4794   -1.9464    9.6814 H         1 <0>         0.1357
     46 H21        10.0699   -2.0362    6.2661 H         1 <0>         0.1460
     47 H22        11.8035   -2.7542    8.6184 H         1 <0>         0.2058
     48 H23         3.4271   -1.4414    1.8443 H         1 <0>         0.4219
@<TRIPOS>BOND
     1    1    6 ar
     2    1    2 ar
     3    1   27 1
     4    2    3 ar
     5    2   28 1
     6    3    4 ar
     7    3   29 1
     8    4    5 ar
     9    4    7 1
    10    5    6 ar
    11    5   30 1
    12    6   31 1
    13    7    8 1
    14    7   32 1
    15    7   33 1
    16    8   13 1
    17    8    9 1
    18    8   48 1
    19    9   10 1
    20    9   34 1
    21    9   35 1
    22   10   11 1
    23   10   36 1
    24   10   37 1
    25   11   12 1
    26   11   14 1
    27   11   38 1
    28   12   13 1
    29   12   39 1
    30   12   40 1
    31   13   41 1
    32   13   42 1
    33   14   15 am
    34   14   43 1
    35   15   16 2
    36   15   17 1
    37   17   22 ar
    38   17   18 ar
    39   18   19 ar
    40   18   44 1
    41   19   20 ar
    42   19   45 1
    43   20   25 1
    44   20   21 ar
    45   21   22 ar
    46   21   23 1
    47   22   46 1
    48   23   24 2
    49   23   47 1
    50   24   25 1
    51   25   26 1
@<TRIPOS>MOLECULE
CHEMBL415061
   48    51     0     0     0
SMALL
USER_CHARGES

@<TRIPOS>ATOM
      1 C1          0.0039    1.4164    0.0263 C.ar      1 <0>        -0.0853
      2 C2          1.1966    2.1152    0.0159 C.ar      1 <0>        -0.1152
      3 C3          2.3980    1.4317   -0.0030 C.ar      1 <0>        -0.0990
      4 C4          2.4067    0.0494   -0.0111 C.ar      1 <0>        -0.1598
      5 C5          1.2141   -0.6494    0.0002 C.ar      1 <0>        -0.0902
      6 C6          0.0126    0.0341    0.0177 C.ar      1 <0>        -0.1133
      7 C7          3.7164   -0.6957   -0.0327 C.3       1 <0>         0.0459
      8 N1          4.1603   -0.9458    1.3451 N.4       1 <0>        -0.3834
      9 C8          4.4427    0.3338    2.0065 C.3       1 <0>        -0.0152
     10 C9          4.8275    0.0837    3.4663 C.3       1 <0>        -0.1493
     11 C10         6.0744   -0.8040    3.5150 C.3       1 <0>        -0.1288
     12 C11         5.7925   -2.1051    2.7581 C.3       1 <0>        -0.1335
     13 C12         5.3720   -1.7740    1.3245 C.3       1 <0>         0.0147
     14 C13         4.6833   -2.8577    3.4467 C.2       1 <0>         0.5155
     15 O1          3.6584   -3.1088    2.8487 O.2       1 <0>        -0.5411
     16 N2          4.8302   -3.2519    4.7272 N.am      1 <0>        -0.6451
     17 C14         3.7640   -3.8656    5.3981 C.ar      1 <0>         0.0801
     18 C15         2.9015   -4.7132    4.7018 C.ar      1 <0>        -0.0646
     19 C16         1.8574   -5.3211    5.3366 C.ar      1 <0>        -0.1229
     20 C17         1.6413   -5.0996    6.6947 C.ar      1 <0>         0.1292
     21 C18         2.5053   -4.2462    7.4069 C.ar      1 <0>        -0.1662
     22 C19         3.5755   -3.6330    6.7455 C.ar      1 <0>        -0.0509
     23 C20         2.0184   -4.2235    8.7825 C.2       1 <0>         0.0783
     24 N3          0.9710   -4.9950    8.8469 N.2       1 <0>        -0.2366
     25 N4          0.7058   -5.5508    7.5912 N.pl3     1 <0>        -0.5051
     26 H1         -0.0226   -6.1579    7.3869 H         1 <0>         0.4445
     27 H2         -0.9347    1.9504    0.0456 H         1 <0>         0.1353
     28 H3          1.1897    3.1952    0.0223 H         1 <0>         0.1357
     29 H4          3.3298    1.9777   -0.0118 H         1 <0>         0.1307
     30 H5          1.2209   -1.7294   -0.0065 H         1 <0>         0.1318
     31 H6         -0.9192   -0.5119    0.0260 H         1 <0>         0.1356
     32 H7          3.5854   -1.6459   -0.5503 H         1 <0>         0.1363
     33 H8          4.4655   -0.0988   -0.5530 H         1 <0>         0.1341
     34 H9          5.2655    0.8329    1.4948 H         1 <0>         0.1301
     35 H10         3.5554    0.9657    1.9682 H         1 <0>         0.1318
     36 H11         5.0385    1.0349    3.9551 H         1 <0>         0.1187
     37 H12         4.0052   -0.4152    3.9791 H         1 <0>         0.0845
     38 H13         6.9105   -0.2841    3.0473 H         1 <0>         0.1019
     39 H14         6.3195   -1.0316    4.5524 H         1 <0>         0.0991
     40 H15         6.6933   -2.7185    2.7407 H         1 <0>         0.1489
     41 H16         5.1707   -2.6981    0.7828 H         1 <0>         0.1372
     42 H17         6.1750   -1.2299    0.8273 H         1 <0>         0.1401
     43 H18         5.6739   -3.1107    5.1844 H         1 <0>         0.4176
     44 H19         3.0618   -4.8900    3.6485 H         1 <0>         0.1453
     45 H20         1.1976   -5.9744    4.7850 H         1 <0>         0.1341
     46 H21         4.2461   -2.9800    7.2842 H         1 <0>         0.1360
     47 H22         2.4496   -3.6663    9.6010 H         1 <0>         0.2020
     48 H23         3.4322   -1.4293    1.8494 H         1 <0>         0.4306
@<TRIPOS>BOND
     1    1    6 ar
     2    1    2 ar
     3    1   27 1
     4    2    3 ar
     5    2   28 1
     6    3    4 ar
     7    3   29 1
     8    4    5 ar
     9    4    7 1
    10    5    6 ar
    11    5   30 1
    12    6   31 1
    13    7    8 1
    14    7   32 1
    15    7   33 1
    16    8   13 1
    17    8    9 1
    18    8   48 1
    19    9   10 1
    20    9   34 1
    21    9   35 1
    22   10   11 1
    23   10   36 1
    24   10   37 1
    25   11   12 1
    26   11   38 1
    27   11   39 1
    28   12   13 1
    29   12   14 1
    30   12   40 1
    31   13   41 1
    32   13   42 1
    33   14   15 2
    34   14   16 am
    35   16   17 1
    36   16   43 1
    37   17   22 ar
    38   17   18 ar
    39   18   19 ar
    40   18   44 1
    41   19   20 ar
    42   19   45 1
    43   20   25 1
    44   20   21 ar
    45   21   22 ar
    46   21   23 1
    47   22   46 1
    48   23   24 2
    49   23   47 1
    50   24   25 1
    51   25   26 1
@<TRIPOS>MOLECULE
CHEMBL415061__1
   48    51     0     0     0
SMALL
USER_CHARGES

@<TRIPOS>ATOM
      1 C1         -0.0011    1.4066    0.0137 C.ar      1 <0>        -0.0837
      2 C2          1.1907    2.1068   -0.0008 C.ar      1 <0>        -0.1136
      3 C3          2.3930    1.4248   -0.0168 C.ar      1 <0>        -0.0974
      4 C4          2.4035    0.0425   -0.0179 C.ar      1 <0>        -0.1615
      5 C5          1.2117   -0.6578   -0.0026 C.ar      1 <0>        -0.0934
      6 C6          0.0094    0.0242    0.0121 C.ar      1 <0>        -0.1128
      7 C7          3.7141   -0.7011   -0.0364 C.3       1 <0>         0.0452
      8 N1          4.1590   -0.9437    1.3424 N.4       1 <0>        -0.3804
      9 C8          4.4401    0.3396    1.9972 C.3       1 <0>        -0.0171
     10 C9          4.8259    0.0974    3.4580 C.3       1 <0>        -0.1406
     11 C10         6.0740   -0.7885    3.5105 C.3       1 <0>        -0.1326
     12 C11         5.7934   -2.0937    2.7604 C.3       1 <0>        -0.1290
     13 C12         5.3717   -1.7704    1.3254 C.3       1 <0>         0.0102
     14 C13         7.0399   -2.9404    2.7399 C.2       1 <0>         0.5241
     15 O1          7.5400   -3.2580    1.6816 O.2       1 <0>        -0.5136
     16 N2          7.5990   -3.3446    3.8977 N.am      1 <0>        -0.6557
     17 C14         8.7006   -4.2105    3.8790 C.ar      1 <0>         0.0880
     18 C15         9.6543   -4.0987    2.8666 C.ar      1 <0>        -0.0650
     19 C16        10.7346   -4.9318    2.8305 C.ar      1 <0>        -0.1226
     20 C17        10.8966   -5.9082    3.8106 C.ar      1 <0>         0.1271
     21 C18         9.9404   -6.0298    4.8367 C.ar      1 <0>        -0.1658
     22 C19         8.8397   -5.1659    4.8654 C.ar      1 <0>        -0.0550
     23 C20        10.3895   -7.1262    5.6889 C.2       1 <0>         0.0775
     24 N3         11.5017   -7.5870    5.1919 N.2       1 <0>        -0.2383
     25 N4         11.8476   -6.8698    4.0421 N.pl3     1 <0>        -0.5060
     26 H1         12.6337   -7.0269    3.4959 H         1 <0>         0.4440
     27 H2         -0.9403    1.9394    0.0308 H         1 <0>         0.1360
     28 H3          1.1825    3.1868    0.0001 H         1 <0>         0.1363
     29 H4          3.3241    1.9719   -0.0288 H         1 <0>         0.1312
     30 H5          1.2199   -1.7378   -0.0038 H         1 <0>         0.1315
     31 H6         -0.9217   -0.5229    0.0237 H         1 <0>         0.1363
     32 H7          3.5840   -1.6541   -0.5492 H         1 <0>         0.1387
     33 H8          4.4622   -0.1059   -0.5602 H         1 <0>         0.1370
     34 H9          5.2621    0.8372    1.4825 H         1 <0>         0.1305
     35 H10         3.5520    0.9702    1.9561 H         1 <0>         0.1349
     36 H11         5.0360    1.0513    3.9419 H         1 <0>         0.1185
     37 H12         4.0045   -0.4000    3.9737 H         1 <0>         0.0914
     38 H13         6.9092   -0.2698    3.0398 H         1 <0>         0.0917
     39 H14         6.3199   -1.0105    4.5490 H         1 <0>         0.1002
     40 H15         4.9921   -2.6366    3.2616 H         1 <0>         0.1243
     41 H16         5.1714   -2.6975    0.7884 H         1 <0>         0.1407
     42 H17         6.1738   -1.2278    0.8250 H         1 <0>         0.1396
     43 H18         7.2389   -3.0361    4.7439 H         1 <0>         0.4131
     44 H19         9.5360   -3.3445    2.1026 H         1 <0>         0.1444
     45 H20        11.4648   -4.8341    2.0407 H         1 <0>         0.1338
     46 H21         8.1030   -5.2487    5.6508 H         1 <0>         0.1351
     47 H22         9.8888   -7.4904    6.5738 H         1 <0>         0.2013
     48 H23         3.4318   -1.4255    1.8495 H         1 <0>         0.4217
@<TRIPOS>BOND
     1    1    6 ar
     2    1    2 ar
     3    1   27 1
     4    2    3 ar
     5    2   28 1
     6    3    4 ar
     7    3   29 1
     8    4    5 ar
     9    4    7 1
    10    5    6 ar
    11    5   30 1
    12    6   31 1
    13    7    8 1
    14    7   32 1
    15    7   33 1
    16    8   13 1
    17    8    9 1
    18    8   48 1
    19    9   10 1
    20    9   34 1
    21    9   35 1
    22   10   11 1
    23   10   36 1
    24   10   37 1
    25   11   12 1
    26   11   38 1
    27   11   39 1
    28   12   13 1
    29   12   14 1
    30   12   40 1
    31   13   41 1
    32   13   42 1
    33   14   15 2
    34   14   16 am
    35   16   17 1
    36   16   43 1
    37   17   22 ar
    38   17   18 ar
    39   18   19 ar
    40   18   44 1
    41   19   20 ar
    42   19   45 1
    43   20   25 1
    44   20   21 ar
    45   21   22 ar
    46   21   23 1
    47   22   46 1
    48   23   24 2
    49   23   47 1
    50   24   25 1
    51   25   26 1
@<TRIPOS>MOLECULE
CHEMBL427083
   48    51     0     0     0
SMALL
USER_CHARGES

@<TRIPOS>ATOM
      1 C1         -0.0281    1.3712    0.0217 C.ar      1 <0>        -0.0833
      2 C2          1.1618    2.0746    0.0049 C.ar      1 <0>        -0.1133
      3 C3          2.3658    1.3958   -0.0112 C.ar      1 <0>        -0.0976
      4 C4          2.3800    0.0135   -0.0101 C.ar      1 <0>        -0.1632
      5 C5          1.1902   -0.6900    0.0077 C.ar      1 <0>        -0.0935
      6 C6         -0.0139   -0.0111    0.0223 C.ar      1 <0>        -0.1128
      7 C7          3.6927   -0.7266   -0.0286 C.3       1 <0>         0.0450
      8 N1          4.1395   -0.9657    1.3502 N.4       1 <0>        -0.3837
      9 C8          4.4179    0.3194    2.0025 C.3       1 <0>        -0.0118
     10 C9          4.8058    0.0808    3.4634 C.3       1 <0>        -0.1263
     11 C10         6.0562   -0.8017    3.5162 C.3       1 <0>        -0.1195
     12 C11         5.7784   -2.1090    2.7684 C.3       1 <0>        -0.1418
     13 C12         5.3545   -1.7892    1.3333 C.3       1 <0>        -0.0037
     14 C13         6.3985   -1.1054    4.9520 C.2       1 <0>         0.5161
     15 O1          5.7107   -0.6604    5.8466 O.2       1 <0>        -0.5092
     16 N2          7.4687   -1.8714    5.2422 N.am      1 <0>        -0.6622
     17 C14         7.8437   -2.0746    6.5770 C.ar      1 <0>         0.0906
     18 C15         6.8640   -2.1758    7.5655 C.ar      1 <0>        -0.0656
     19 C16         7.2081   -2.3741    8.8712 C.ar      1 <0>        -0.1229
     20 C17         8.5495   -2.4781    9.2319 C.ar      1 <0>         0.1258
     21 C18         9.5461   -2.3775    8.2427 C.ar      1 <0>        -0.1654
     22 C19         9.1799   -2.1794    6.9065 C.ar      1 <0>        -0.0579
     23 C20        10.8245   -2.5249    8.9310 C.2       1 <0>         0.0768
     24 N3         10.5771   -2.6942   10.1985 N.2       1 <0>        -0.2390
     25 N4          9.1973   -2.6722   10.4258 N.pl3     1 <0>        -0.5064
     26 H1          8.7672   -2.7772   11.2889 H         1 <0>         0.4437
     27 H2         -0.9687    1.9015    0.0388 H         1 <0>         0.1361
     28 H3          1.1507    3.1545    0.0039 H         1 <0>         0.1364
     29 H4          3.2955    1.9453   -0.0251 H         1 <0>         0.1312
     30 H5          1.2013   -1.7699    0.0082 H         1 <0>         0.1311
     31 H6         -0.9435   -0.5607    0.0358 H         1 <0>         0.1363
     32 H7          3.5646   -1.6808   -0.5397 H         1 <0>         0.1376
     33 H8          4.4386   -0.1303   -0.5541 H         1 <0>         0.1360
     34 H9          5.2380    0.8184    1.4862 H         1 <0>         0.1308
     35 H10         3.5280    0.9476    1.9613 H         1 <0>         0.1365
     36 H11         5.0138    1.0360    3.9455 H         1 <0>         0.1204
     37 H12         3.9862   -0.4180    3.9807 H         1 <0>         0.0979
     38 H13         6.8896   -0.2816    3.0438 H         1 <0>         0.1198
     39 H14         6.6816   -2.7189    2.7538 H         1 <0>         0.1180
     40 H15         4.9790   -2.6532    3.2714 H         1 <0>         0.0971
     41 H16         5.1561   -2.7177    0.7981 H         1 <0>         0.1368
     42 H17         6.1546   -1.2453    0.8313 H         1 <0>         0.1335
     43 H18         7.9794   -2.2821    4.5271 H         1 <0>         0.4102
     44 H19         5.8217   -2.0958    7.2943 H         1 <0>         0.1439
     45 H20         6.4392   -2.4501    9.6259 H         1 <0>         0.1332
     46 H21         9.9371   -2.1050    6.1399 H         1 <0>         0.1344
     47 H22        11.8014   -2.4984    8.4713 H         1 <0>         0.2009
     48 H23         3.4142   -1.4486    1.8588 H         1 <0>         0.4234
@<TRIPOS>BOND
     1    1    6 ar
     2    1    2 ar
     3    1   27 1
     4    2    3 ar
     5    2   28 1
     6    3    4 ar
     7    3   29 1
     8    4    5 ar
     9    4    7 1
    10    5    6 ar
    11    5   30 1
    12    6   31 1
    13    7    8 1
    14    7   32 1
    15    7   33 1
    16    8   13 1
    17    8    9 1
    18    8   48 1
    19    9   10 1
    20    9   34 1
    21    9   35 1
    22   10   11 1
    23   10   36 1
    24   10   37 1
    25   11   12 1
    26   11   14 1
    27   11   38 1
    28   12   13 1
    29   12   39 1
    30   12   40 1
    31   13   41 1
    32   13   42 1
    33   14   15 2
    34   14   16 am
    35   16   17 1
    36   16   43 1
    37   17   22 ar
    38   17   18 ar
    39   18   19 ar
    40   18   44 1
    41   19   20 ar
    42   19   45 1
    43   20   25 1
    44   20   21 ar
    45   21   22 ar
    46   21   23 1
    47   22   46 1
    48   23   24 2
    49   23   47 1
    50   24   25 1
    51   25   26 1
@<TRIPOS>MOLECULE
CHEMBL375882
   47    49     0     0     0
SMALL
USER_CHARGES

@<TRIPOS>ATOM
      1 C1          0.6745   -0.3043    1.3360 C.3       1 <0>        -0.1525
      2 C2          0.0557   -0.1363   -0.0531 C.3       1 <0>        -0.1192
      3 C3          0.8639   -0.9420   -1.0723 C.3       1 <0>        -0.1698
      4 C4         -1.3882   -0.6419   -0.0329 C.3       1 <0>        -0.0085
      5 N1         -2.0240   -0.3600   -1.3268 N.4       1 <0>        -0.3858
      6 C5         -2.1382    1.0921   -1.5081 C.3       1 <0>        -0.0064
      7 C6         -2.7256    1.3930   -2.8887 C.3       1 <0>        -0.1557
      8 C7         -4.1123    0.7526   -2.9980 C.3       1 <0>         0.1452
      9 C8         -3.9918   -0.7510   -2.7337 C.3       1 <0>        -0.1681
     10 C9         -3.3575   -0.9724   -1.3588 C.3       1 <0>        -0.0038
     11 N2         -4.6486    0.9720   -4.3436 N.pl3     1 <0>        -0.7375
     12 C10        -6.0261    0.9689   -4.5537 C.ar      1 <0>         0.2115
     13 C11        -6.8925    0.7657   -3.4993 C.ar      1 <0>        -0.1935
     14 C12        -8.2695    0.7615   -3.6998 C.ar      1 <0>        -0.0742
     15 C13        -8.8027    0.9566   -4.9383 C.ar      1 <0>        -0.1312
     16 C14        -7.9559    1.1668   -6.0376 C.ar      1 <0>        -0.0752
     17 C15        -6.5505    1.1789   -5.8439 C.ar      1 <0>        -0.0626
     18 C16        -5.7263    1.3971   -6.9608 C.ar      1 <0>        -0.1547
     19 C17        -6.3103    1.5924   -8.1762 C.ar      1 <0>         0.0766
     20 N3         -7.6273    1.5821   -8.3294 N.ar      1 <0>        -0.4781
     21 C18        -8.4564    1.3722   -7.3340 C.ar      1 <0>         0.1456
     22 H1          1.7159    0.0166    1.3112 H         1 <0>         0.0780
     23 H2          0.1242    0.3029    2.0547 H         1 <0>         0.0680
     24 H3          0.6242   -1.3522    1.6318 H         1 <0>         0.0684
     25 H4          0.0678    0.9176   -0.3312 H         1 <0>         0.0932
     26 H5          0.8518   -1.9959   -0.7942 H         1 <0>         0.0737
     27 H6          0.4231   -0.8223   -2.0619 H         1 <0>         0.0495
     28 H7          1.8926   -0.5818   -1.0867 H         1 <0>         0.0841
     29 H8         -1.3943   -1.7167    0.1485 H         1 <0>         0.1326
     30 H9         -1.9390   -0.1364    0.7604 H         1 <0>         0.1319
     31 H10        -2.7912    1.5036   -0.7384 H         1 <0>         0.1335
     32 H11        -1.1509    1.5468   -1.4268 H         1 <0>         0.1371
     33 H12        -2.8113    2.4715   -3.0206 H         1 <0>         0.1201
     34 H13        -2.0731    0.9821   -3.6592 H         1 <0>         0.0931
     35 H14        -4.7795    1.1999   -2.2611 H         1 <0>         0.0989
     36 H15        -4.9825   -1.2049   -2.7548 H         1 <0>         0.1174
     37 H16        -3.3656   -1.2064   -3.5009 H         1 <0>         0.0917
     38 H17        -3.2704   -2.0419   -1.1673 H         1 <0>         0.1342
     39 H18        -3.9845   -0.5169   -0.5923 H         1 <0>         0.1316
     40 H19        -4.0447    1.1194   -5.0882 H         1 <0>         0.4045
     41 H20        -6.4973    0.6077   -2.5067 H         1 <0>         0.1207
     42 H21        -8.9274    0.6003   -2.8586 H         1 <0>         0.1285
     43 H22        -9.8741    0.9491   -5.0739 H         1 <0>         0.1348
     44 H23        -4.6513    1.4101   -6.8579 H         1 <0>         0.1282
     45 H24        -5.6828    1.7607   -9.0390 H         1 <0>         0.1547
     46 H25        -9.5222    1.3719   -7.5087 H         1 <0>         0.1686
     47 H26        -1.4597   -0.7461   -2.0688 H         1 <0>         0.4209
@<TRIPOS>BOND
     1    1    2 1
     2    1   22 1
     3    1   23 1
     4    1   24 1
     5    2    3 1
     6    2    4 1
     7    2   25 1
     8    3   26 1
     9    3   27 1
    10    3   28 1
    11    4    5 1
    12    4   29 1
    13    4   30 1
    14    5   10 1
    15    5    6 1
    16    5   47 1
    17    6    7 1
    18    6   31 1
    19    6   32 1
    20    7    8 1
    21    7   33 1
    22    7   34 1
    23    8    9 1
    24    8   11 1
    25    8   35 1
    26    9   10 1
    27    9   36 1
    28    9   37 1
    29   10   38 1
    30   10   39 1
    31   11   12 1
    32   11   40 1
    33   12   17 ar
    34   12   13 ar
    35   13   14 ar
    36   13   41 1
    37   14   15 ar
    38   14   42 1
    39   15   16 ar
    40   15   43 1
    41   16   21 ar
    42   16   17 ar
    43   17   18 ar
    44   18   19 ar
    45   18   44 1
    46   19   20 ar
    47   19   45 1
    48   20   21 ar
    49   21   46 1
@<TRIPOS>MOLECULE
CHEMBL375882__1
   48    50     0     0     0
SMALL
USER_CHARGES

@<TRIPOS>ATOM
      1 C1         -0.0187    1.5258    0.0104 C.3       1 <0>        -0.1542
      2 C2          0.0021   -0.0041    0.0020 C.3       1 <0>        -0.1185
      3 C3          0.7421   -0.5109    1.2415 C.3       1 <0>        -0.1704
      4 C4         -1.4333   -0.5336    0.0129 C.3       1 <0>        -0.0092
      5 N1         -1.4164   -1.9969   -0.1159 N.4       1 <0>        -0.3865
      6 C5         -0.8677   -2.3649   -1.4266 C.3       1 <0>        -0.0086
      7 C6         -0.7723   -3.8884   -1.5343 C.3       1 <0>        -0.1555
      8 C7         -2.1698   -4.4943   -1.3758 C.3       1 <0>         0.1379
      9 C8         -2.7623   -4.0431   -0.0377 C.3       1 <0>        -0.1677
     10 C9         -2.7839   -2.5139    0.0146 C.3       1 <0>        -0.0052
     11 N2         -2.0757   -5.9561   -1.4019 N.pl3     1 <0>        -0.7280
     12 C10        -3.1746   -6.7180   -1.7937 C.ar      1 <0>         0.2200
     13 C11        -4.3534   -6.1039   -2.1642 C.ar      1 <0>        -0.1490
     14 C12        -5.4556   -6.8569   -2.5573 C.ar      1 <0>        -0.0400
     15 C13        -5.4055   -8.2181   -2.5880 C.ar      1 <0>        -0.1145
     16 C14        -4.2252   -8.8816   -2.2188 C.ar      1 <0>        -0.0634
     17 C15        -3.0933   -8.1239   -1.8218 C.ar      1 <0>        -0.0448
     18 C16        -1.9230   -8.8136   -1.4625 C.ar      1 <0>        -0.0727
     19 C17        -1.9238  -10.1750   -1.5159 C.ar      1 <0>         0.0463
     20 N3         -2.9938  -10.8596   -1.8962 N.ar      1 <0>        -0.4349
     21 C18        -4.1233  -10.2826   -2.2332 C.ar      1 <0>         0.2128
     22 H1          1.0039    1.9031    0.0027 H         1 <0>         0.0800
     23 H2         -0.5459    1.8868   -0.8726 H         1 <0>         0.0689
     24 H3         -0.5289    1.8773    0.9072 H         1 <0>         0.0699
     25 H4          0.5123   -0.3556   -0.8948 H         1 <0>         0.0930
     26 H5          0.2319   -0.1594    2.1383 H         1 <0>         0.0750
     27 H6          0.7568   -1.6008    1.2356 H         1 <0>         0.0473
     28 H7          1.7647   -0.1336    1.2338 H         1 <0>         0.0861
     29 H8         -1.9156   -0.2570    0.9504 H         1 <0>         0.1350
     30 H9         -1.9862   -0.1019   -0.8214 H         1 <0>         0.1336
     31 H10        -1.5205   -1.9857   -2.2127 H         1 <0>         0.1358
     32 H11         0.1256   -1.9303   -1.5392 H         1 <0>         0.1418
     33 H12        -0.3664   -4.1596   -2.5088 H         1 <0>         0.1223
     34 H13        -0.1194   -4.2686   -0.7487 H         1 <0>         0.0960
     35 H14        -2.8090   -4.1544   -2.1906 H         1 <0>         0.1052
     36 H15        -3.7787   -4.4249    0.0576 H         1 <0>         0.1166
     37 H16        -2.1507   -4.4266    0.7790 H         1 <0>         0.0953
     38 H17        -3.2054   -2.1893    0.9660 H         1 <0>         0.1385
     39 H18        -3.3959   -2.1315   -0.8023 H         1 <0>         0.1337
     40 H19        -1.2485   -6.3935   -1.1464 H         1 <0>         0.4092
     41 H20        -4.4215   -5.0262   -2.1486 H         1 <0>         0.1431
     42 H21        -6.3673   -6.3533   -2.8429 H         1 <0>         0.1531
     43 H22        -6.2718   -8.7850   -2.8954 H         1 <0>         0.1573
     44 H23        -1.0403   -8.2752   -1.1506 H         1 <0>         0.1703
     45 H24        -1.0277  -10.7115   -1.2412 H         1 <0>         0.2034
     46 H25        -4.9686  -10.8833   -2.5351 H         1 <0>         0.2197
     47 H26        -0.8382   -2.3908    0.6112 H         1 <0>         0.4219
     48 H27        -2.9422  -11.8280   -1.9177 H         1 <0>         0.4543
@<TRIPOS>BOND
     1    1    2 1
     2    1   22 1
     3    1   23 1
     4    1   24 1
     5    2    3 1
     6    2    4 1
     7    2   25 1
     8    3   26 1
     9    3   27 1
    10    3   28 1
    11    4    5 1
    12    4   29 1
    13    4   30 1
    14    5   10 1
    15    5    6 1
    16    5   47 1
    17    6    7 1
    18    6   31 1
    19    6   32 1
    20    7    8 1
    21    7   33 1
    22    7   34 1
    23    8    9 1
    24    8   11 1
    25    8   35 1
    26    9   10 1
    27    9   36 1
    28    9   37 1
    29   10   38 1
    30   10   39 1
    31   11   12 1
    32   11   40 1
    33   12   17 ar
    34   12   13 ar
    35   13   14 ar
    36   13   41 1
    37   14   15 ar
    38   14   42 1
    39   15   16 ar
    40   15   43 1
    41   16   21 ar
    42   16   17 ar
    43   17   18 ar
    44   18   19 ar
    45   18   44 1
    46   19   20 ar
    47   19   45 1
    48   20   21 ar
    49   20   48 1
    50   21   46 1
@<TRIPOS>MOLECULE
CHEMBL521179
   55    58     0     0     0
SMALL
USER_CHARGES

@<TRIPOS>ATOM
      1 C1          0.5997   -0.3317   -1.1194 C.3       1 <0>        -0.0549
      2 N1         -0.1358   -0.0000    0.1082 N.4       1 <0>        -0.3890
      3 C2         -0.1867    1.4592    0.2694 C.3       1 <0>        -0.0485
      4 C3         -1.5026   -0.5308    0.0187 C.3       1 <0>        -0.0028
      5 C4         -1.4567   -2.0601    0.0160 C.3       1 <0>         0.0262
      6 O1         -0.9480   -2.5236    1.2684 O.3       1 <0>        -0.3334
      7 C5         -0.8422   -3.8693    1.4317 C.ar      1 <0>         0.0966
      8 C6         -1.2141   -4.7223    0.4079 C.ar      1 <0>        -0.1835
      9 C7         -1.1047   -6.1005    0.5781 C.ar      1 <0>         0.0420
     10 C8         -0.6211   -6.6168    1.7784 C.ar      1 <0>        -0.1210
     11 C9         -0.2507   -5.7639    2.7980 C.ar      1 <0>        -0.0844
     12 C10        -0.3536   -4.3902    2.6284 C.ar      1 <0>         0.1194
     13 N2          0.0288   -3.5265    3.6635 N.am      1 <0>        -0.6598
     14 C11         0.9058   -3.9422    4.5987 C.2       1 <0>         0.5229
     15 O2          1.4405   -5.0254    4.4898 O.2       1 <0>        -0.4760
     16 C12         1.2221   -3.0610    5.7796 C.3       1 <0>         0.0361
     17 C13         1.9514   -1.7979    5.3022 C.3       1 <0>         0.0365
     18 O3          2.2486   -0.9920    6.4477 O.3       1 <0>        -0.2993
     19 C14         2.7834   -1.6318    7.5233 C.ar      1 <0>         0.0401
     20 C15         3.4223   -0.8917    8.5072 C.ar      1 <0>        -0.1086
     21 C16         3.9674   -1.5267    9.6069 C.ar      1 <0>        -0.1101
     22 C17         3.8778   -2.9009    9.7295 C.ar      1 <0>        -0.1069
     23 C18         3.2440   -3.6443    8.7521 C.ar      1 <0>        -0.1065
     24 C19         2.6965   -3.0135    7.6447 C.ar      1 <0>         0.0490
     25 O4          2.0818   -3.7596    6.6866 O.3       1 <0>        -0.2776
     26 C20        -1.5036   -7.0186   -0.5186 C.2       1 <0>        -0.2178
     27 C21        -1.4545   -8.3816   -0.4869 C.2       1 <0>         0.0916
     28 N3         -1.9022   -8.8338   -1.6761 N.pl3     1 <0>        -0.4647
     29 H1         -1.9790   -9.7645   -1.9383 H         1 <0>         0.4477
     30 N4         -2.2377   -7.7277   -2.4663 N.2       1 <0>        -0.2844
     31 C22        -2.0071   -6.6408   -1.7785 C.2       1 <0>         0.0656
     32 H2          1.6139    0.0621   -1.0530 H         1 <0>         0.1273
     33 H3          0.6374   -1.4145   -1.2390 H         1 <0>         0.1226
     34 H4          0.0934    0.1111   -1.9771 H         1 <0>         0.1256
     35 H5         -0.6140    1.9090   -0.6268 H         1 <0>         0.1240
     36 H6         -0.8056    1.7082    1.1314 H         1 <0>         0.1251
     37 H7          0.8218    1.8432    0.4231 H         1 <0>         0.1260
     38 H8         -2.0830   -0.1862    0.8746 H         1 <0>         0.1429
     39 H9         -1.9692   -0.1796   -0.9017 H         1 <0>         0.1507
     40 H10        -2.4619   -2.4534   -0.1358 H         1 <0>         0.1116
     41 H11        -0.8070   -2.4027   -0.7893 H         1 <0>         0.0890
     42 H12        -1.5891   -4.3202   -0.5217 H         1 <0>         0.1331
     43 H13        -0.5364   -7.6853    1.9110 H         1 <0>         0.1338
     44 H14         0.1236   -6.1659    3.7279 H         1 <0>         0.1599
     45 H15        -0.3378   -2.6295    3.7070 H         1 <0>         0.4119
     46 H16         0.2991   -2.7831    6.2884 H         1 <0>         0.1162
     47 H17         2.8770   -2.0762    4.7983 H         1 <0>         0.0853
     48 H18         1.3122   -1.2412    4.6169 H         1 <0>         0.1190
     49 H19         3.4941    0.1818    8.4136 H         1 <0>         0.1375
     50 H20         4.4646   -0.9486   10.3718 H         1 <0>         0.1377
     51 H21         4.3043   -3.3943   10.5904 H         1 <0>         0.1385
     52 H22         3.1753   -4.7177    8.8502 H         1 <0>         0.1396
     53 H23        -1.1175   -8.9886    0.3405 H         1 <0>         0.1850
     54 H24        -2.1713   -5.6288   -2.1182 H         1 <0>         0.1821
     55 H25         0.3329   -0.4100    0.9022 H         1 <0>         0.4318
@<TRIPOS>BOND
     1    1    2 1
     2    1   32 1
     3    1   33 1
     4    1   34 1
     5    2    3 1
     6    2    4 1
     7    2   55 1
     8    3   35 1
     9    3   36 1
    10    3   37 1
    11    4    5 1
    12    4   38 1
    13    4   39 1
    14    5    6 1
    15    5   40 1
    16    5   41 1
    17    6    7 1
    18    7   12 ar
    19    7    8 ar
    20    8    9 ar
    21    8   42 1
    22    9   10 ar
    23    9   26 1
    24   10   11 ar
    25   10   43 1
    26   11   12 ar
    27   11   44 1
    28   12   13 1
    29   13   14 am
    30   13   45 1
    31   14   15 2
    32   14   16 1
    33   16   25 1
    34   16   17 1
    35   16   46 1
    36   17   18 1
    37   17   47 1
    38   17   48 1
    39   18   19 1
    40   19   24 ar
    41   19   20 ar
    42   20   21 ar
    43   20   49 1
    44   21   22 ar
    45   21   50 1
    46   22   23 ar
    47   22   51 1
    48   23   24 ar
    49   23   52 1
    50   24   25 1
    51   26   31 1
    52   26   27 2
    53   27   28 1
    54   27   53 1
    55   28   29 1
    56   28   30 1
    57   30   31 2
    58   31   54 1
@<TRIPOS>MOLECULE
CHEMBL521179__1
   55    58     0     0     0
SMALL
USER_CHARGES

@<TRIPOS>ATOM
      1 C1          0.5997   -0.3319   -1.1196 C.3       1 <0>        -0.0548
      2 N1         -0.1357   -0.0001    0.1081 N.4       1 <0>        -0.3891
      3 C2         -0.1864    1.4591    0.2692 C.3       1 <0>        -0.0482
      4 C3         -1.5025   -0.5308    0.0187 C.3       1 <0>        -0.0026
      5 C4         -1.4568   -2.0601    0.0160 C.3       1 <0>         0.0262
      6 O1         -0.9480   -2.5236    1.2684 O.3       1 <0>        -0.3332
      7 C5         -0.8423   -3.8693    1.4318 C.ar      1 <0>         0.0967
      8 C6         -1.2144   -4.7223    0.4080 C.ar      1 <0>        -0.1835
      9 C7         -1.1050   -6.1005    0.5782 C.ar      1 <0>         0.0421
     10 C8         -0.6214   -6.6168    1.7785 C.ar      1 <0>        -0.1211
     11 C9         -0.2510   -5.7639    2.7981 C.ar      1 <0>        -0.0846
     12 C10        -0.3537   -4.3902    2.6285 C.ar      1 <0>         0.1195
     13 N2          0.0287   -3.5265    3.6635 N.am      1 <0>        -0.6599
     14 C11         0.9057   -3.9422    4.5987 C.2       1 <0>         0.5225
     15 O2          1.4404   -5.0255    4.4898 O.2       1 <0>        -0.4762
     16 C12         1.2220   -3.0610    5.7796 C.3       1 <0>         0.0385
     17 C13        -0.0249   -2.9101    6.6614 C.3       1 <0>         0.0340
     18 O3          0.3137   -2.0809    7.7784 O.3       1 <0>        -0.2979
     19 C14         1.4799   -2.3654    8.4198 C.ar      1 <0>         0.0417
     20 C15         1.6956   -1.8635    9.6947 C.ar      1 <0>        -0.1088
     21 C16         2.8761   -2.1410   10.3575 C.ar      1 <0>        -0.1096
     22 C17         3.8453   -2.9187    9.7517 C.ar      1 <0>        -0.1085
     23 C18         3.6361   -3.4232    8.4822 C.ar      1 <0>        -0.1071
     24 C19         2.4527   -3.1502    7.8123 C.ar      1 <0>         0.0472
     25 O4          2.2574   -3.6608    6.5659 O.3       1 <0>        -0.2786
     26 C20        -1.5040   -7.0186   -0.5185 C.2       1 <0>        -0.2178
     27 C21        -1.4550   -8.3816   -0.4866 C.2       1 <0>         0.0916
     28 N3         -1.9027   -8.8338   -1.6758 N.pl3     1 <0>        -0.4647
     29 H1         -1.9796   -9.7645   -1.9381 H         1 <0>         0.4477
     30 N4         -2.2382   -7.7278   -2.4661 N.2       1 <0>        -0.2844
     31 C22        -2.0075   -6.6408   -1.7784 C.2       1 <0>         0.0656
     32 H2          1.6139    0.0618   -1.0533 H         1 <0>         0.1272
     33 H3          0.6374   -1.4147   -1.2392 H         1 <0>         0.1225
     34 H4          0.0934    0.1110   -1.9773 H         1 <0>         0.1255
     35 H5         -0.6138    1.9090   -0.6269 H         1 <0>         0.1239
     36 H6         -0.8052    1.7081    1.1313 H         1 <0>         0.1248
     37 H7          0.8221    1.8430    0.4229 H         1 <0>         0.1257
     38 H8         -2.0828   -0.1861    0.8746 H         1 <0>         0.1428
     39 H9         -1.9691   -0.1796   -0.9017 H         1 <0>         0.1506
     40 H10        -2.4620   -2.4534   -0.1358 H         1 <0>         0.1117
     41 H11        -0.8071   -2.4027   -0.7893 H         1 <0>         0.0889
     42 H12        -1.5893   -4.3202   -0.5216 H         1 <0>         0.1331
     43 H13        -0.5368   -7.6853    1.9112 H         1 <0>         0.1338
     44 H14         0.1233   -6.1658    3.7280 H         1 <0>         0.1594
     45 H15        -0.3378   -2.6295    3.7070 H         1 <0>         0.4123
     46 H16         1.5468   -2.0809    5.4303 H         1 <0>         0.1109
     47 H17        -0.8266   -2.4448    6.0878 H         1 <0>         0.1248
     48 H18        -0.3460   -3.8899    7.0149 H         1 <0>         0.0878
     49 H19         0.9404   -1.2549   10.1698 H         1 <0>         0.1382
     50 H20         3.0419   -1.7493   11.3502 H         1 <0>         0.1376
     51 H21         4.7677   -3.1322   10.2714 H         1 <0>         0.1379
     52 H22         4.3950   -4.0304    8.0112 H         1 <0>         0.1386
     53 H23        -1.1181   -8.9886    0.3407 H         1 <0>         0.1849
     54 H24        -2.1716   -5.6288   -2.1180 H         1 <0>         0.1821
     55 H25         0.3330   -0.4101    0.9020 H         1 <0>         0.4323
@<TRIPOS>BOND
     1    1    2 1
     2    1   32 1
     3    1   33 1
     4    1   34 1
     5    2    3 1
     6    2    4 1
     7    2   55 1
     8    3   35 1
     9    3   36 1
    10    3   37 1
    11    4    5 1
    12    4   38 1
    13    4   39 1
    14    5    6 1
    15    5   40 1
    16    5   41 1
    17    6    7 1
    18    7   12 ar
    19    7    8 ar
    20    8    9 ar
    21    8   42 1
    22    9   10 ar
    23    9   26 1
    24   10   11 ar
    25   10   43 1
    26   11   12 ar
    27   11   44 1
    28   12   13 1
    29   13   14 am
    30   13   45 1
    31   14   15 2
    32   14   16 1
    33   16   25 1
    34   16   17 1
    35   16   46 1
    36   17   18 1
    37   17   47 1
    38   17   48 1
    39   18   19 1
    40   19   24 ar
    41   19   20 ar
    42   20   21 ar
    43   20   49 1
    44   21   22 ar
    45   21   50 1
    46   22   23 ar
    47   22   51 1
    48   23   24 ar
    49   23   52 1
    50   24   25 1
    51   26   31 1
    52   26   27 2
    53   27   28 1
    54   27   53 1
    55   28   29 1
    56   28   30 1
    57   30   31 2
    58   31   54 1
@<TRIPOS>MOLECULE
CHEMBL225224
   34    36     0     0     0
SMALL
USER_CHARGES

@<TRIPOS>ATOM
      1 C1         -0.0011    1.4065    0.0105 C.ar      1 <0>        -0.0830
      2 C2          1.1908    2.1062   -0.0023 C.ar      1 <0>        -0.1075
      3 C3          2.3941    1.4235   -0.0180 C.ar      1 <0>        -0.0092
      4 C4          2.4041    0.0402   -0.0206 C.ar      1 <0>        -0.0995
      5 C5          1.2110   -0.6596   -0.0074 C.ar      1 <0>        -0.0092
      6 C6          0.0083    0.0243    0.0079 C.ar      1 <0>        -0.1075
      7 Cl1         1.2225   -2.3956   -0.0111 Cl        1 <0>        -0.0437
      8 C7          3.7144   -0.7041   -0.0382 C.3       1 <0>         0.1738
      9 N1          4.1562   -0.9477    1.3372 N.am      1 <0>        -0.7326
     10 C8          5.3113   -1.6026    1.5679 C.2       1 <0>         0.7089
     11 O1          5.9868   -1.9912    0.6346 O.2       1 <0>        -0.5706
     12 N2          5.7178   -1.8267    2.8333 N.am      1 <0>        -0.6832
     13 C9          6.8677   -2.5907    3.0750 C.ar      1 <0>         0.1293
     14 C10         7.9520   -2.5088    2.2006 C.ar      1 <0>        -0.0629
     15 C11         9.0811   -3.2440    2.4182 C.ar      1 <0>        -0.1254
     16 C12         9.1622   -4.0891    3.5225 C.ar      1 <0>         0.1179
     17 C13         8.0741   -4.1794    4.4112 C.ar      1 <0>        -0.1634
     18 C14         6.9240   -3.4159    4.1799 C.ar      1 <0>        -0.0716
     19 C15         8.4657   -5.1324    5.4447 C.2       1 <0>         0.0749
     20 N3          9.6691   -5.5472    5.1685 N.2       1 <0>        -0.2478
     21 N4         10.1325   -4.9335    4.0002 N.pl3     1 <0>        -0.5105
     22 H1         11.0004   -5.0812    3.5931 H         1 <0>         0.4404
     23 Cl2         3.8910    2.3025   -0.0351 Cl        1 <0>        -0.0443
     24 H2         -0.9400    1.9399    0.0269 H         1 <0>         0.1462
     25 H3          1.1829    3.1862   -0.0003 H         1 <0>         0.1441
     26 H4         -0.9233   -0.5220    0.0181 H         1 <0>         0.1442
     27 H5          3.5843   -1.6565   -0.5521 H         1 <0>         0.0887
     28 H6          4.4634   -0.1088   -0.5604 H         1 <0>         0.0886
     29 H7          3.6173   -0.6377    2.0818 H         1 <0>         0.3986
     30 H8          5.2144   -1.4593    3.5766 H         1 <0>         0.4070
     31 H9          7.8969   -1.8565    1.3417 H         1 <0>         0.1491
     32 H10         9.9127   -3.1706    1.7331 H         1 <0>         0.1302
     33 H11         6.0858   -3.4750    4.8584 H         1 <0>         0.1325
     34 H12         7.8650   -5.4389    6.2882 H         1 <0>         0.1976
@<TRIPOS>BOND
     1    1    6 ar
     2    1    2 ar
     3    1   24 1
     4    2    3 ar
     5    2   25 1
     6    3    4 ar
     7    3   23 1
     8    4    5 ar
     9    4    8 1
    10    5    6 ar
    11    5    7 1
    12    6   26 1
    13    8    9 1
    14    8   27 1
    15    8   28 1
    16    9   10 am
    17    9   29 1
    18   10   11 2
    19   10   12 am
    20   12   13 1
    21   12   30 1
    22   13   18 ar
    23   13   14 ar
    24   14   15 ar
    25   14   31 1
    26   15   16 ar
    27   15   32 1
    28   16   21 1
    29   16   17 ar
    30   17   18 ar
    31   17   19 1
    32   18   33 1
    33   19   20 2
    34   19   34 1
    35   20   21 1
    36   21   22 1
@<TRIPOS>MOLECULE
CHEMBL188434
   48    51     0     0     0
SMALL
USER_CHARGES

@<TRIPOS>ATOM
      1 C1         -0.4429   -0.9521   -1.3996 C.3       1 <0>        -0.1714
      2 C2         -0.0580    0.2086   -0.4802 C.3       1 <0>         0.0972
      3 N1          0.3081   -0.3137    0.8387 N.pl3     1 <0>        -0.4625
      4 C3          1.5756   -0.6232    1.2698 C.ar      1 <0>         0.1026
      5 C4          2.8467   -0.5740    0.7079 C.ar      1 <0>        -0.1420
      6 C5          3.9243   -0.9795    1.4651 C.ar      1 <0>         0.1365
      7 N2          3.7687   -1.4105    2.7061 N.ar      1 <0>        -0.4790
      8 C6          2.5897   -1.4778    3.2867 C.ar      1 <0>         0.2027
      9 C7          1.4408   -1.0872    2.5946 C.ar      1 <0>        -0.0030
     10 N3          0.1240   -1.0388    2.9005 N.2       1 <0>        -0.4328
     11 C8         -0.5489   -0.5791    1.8743 C.2       1 <0>         0.3321
     12 C9         -2.0146   -0.3798    1.8382 C.2       1 <0>         0.1344
     13 C10        -2.9476   -0.6525    2.9386 C.2       1 <0>         0.3630
     14 N4         -4.1529   -0.3556    2.5371 N.2       1 <0>        -0.3435
     15 O1         -4.0662    0.1090    1.2018 O.3       1 <0>         0.0467
     16 N5         -2.7018    0.0752    0.8223 N.2       1 <0>        -0.2552
     17 N6         -2.6057   -1.1427    4.1920 N.pl3     1 <0>        -0.8001
     18 C11         3.0422   -0.0862   -0.7045 C.3       1 <0>         0.1004
     19 N7          3.0393    1.3828   -0.7200 N.3       1 <0>        -0.6766
     20 C12         3.0994    1.8948   -2.0956 C.3       1 <0>         0.0704
     21 C13         4.5595    1.9682   -2.5514 C.3       1 <0>        -0.1394
     22 C14         4.6203    2.5764   -3.9542 C.3       1 <0>        -0.0069
     23 N8          4.0448    3.9265   -3.9315 N.4       1 <0>        -0.5057
     24 C15         2.6252    3.8567   -3.5647 C.3       1 <0>        -0.0022
     25 C16         2.4877    3.2978   -2.1469 C.3       1 <0>        -0.1556
     26 H1         -1.2449   -1.5294   -0.9396 H         1 <0>         0.0711
     27 H2         -0.7816   -0.5594   -2.3583 H         1 <0>         0.0856
     28 H3          0.4237   -1.5946   -1.5559 H         1 <0>         0.0645
     29 H4          0.7900    0.7444   -0.9069 H         1 <0>         0.0849
     30 H5         -0.9040    0.8885   -0.3797 H         1 <0>         0.1086
     31 H6          4.9152   -0.9450    1.0369 H         1 <0>         0.1674
     32 H7          2.5099   -1.8366    4.3023 H         1 <0>         0.1765
     33 H8         -1.6783   -1.3356    4.4010 H         1 <0>         0.4309
     34 H9         -3.2943   -1.2922    4.8587 H         1 <0>         0.4214
     35 H10         3.9954   -0.4517   -1.0865 H         1 <0>         0.0969
     36 H11         2.2325   -0.4577   -1.3326 H         1 <0>         0.0483
     37 H12         2.2346    1.7480   -0.2331 H         1 <0>         0.3481
     38 H13         2.5430    1.2302   -2.7565 H         1 <0>         0.0648
     39 H14         5.1259    2.5917   -1.8596 H         1 <0>         0.0996
     40 H15         4.9856    0.9652   -2.5708 H         1 <0>         0.1121
     41 H16         5.6585    2.6299   -4.2819 H         1 <0>         0.1374
     42 H17         4.0538    1.9521   -4.6452 H         1 <0>         0.1295
     43 H18         4.5384    4.4901   -3.2557 H         1 <0>         0.4300
     44 H19         2.1905    4.8555   -3.6048 H         1 <0>         0.1374
     45 H20         2.1013    3.2051   -4.2640 H         1 <0>         0.1311
     46 H21         1.4329    3.2451   -1.8771 H         1 <0>         0.1088
     47 H22         3.0111    3.9489   -1.4467 H         1 <0>         0.1014
     48 H23         4.1348    4.3448   -4.8453 H         1 <0>         0.4337
@<TRIPOS>BOND
     1    1    2 1
     2    1   26 1
     3    1   27 1
     4    1   28 1
     5    2    3 1
     6    2   29 1
     7    2   30 1
     8    3   11 1
     9    3    4 1
    10    4    9 ar
    11    4    5 ar
    12    5    6 ar
    13    5   18 1
    14    6    7 ar
    15    6   31 1
    16    7    8 ar
    17    8    9 ar
    18    8   32 1
    19    9   10 1
    20   10   11 2
    21   11   12 1
    22   12   16 2
    23   12   13 1
    24   13   14 2
    25   13   17 1
    26   14   15 1
    27   15   16 1
    28   17   33 1
    29   17   34 1
    30   18   19 1
    31   18   35 1
    32   18   36 1
    33   19   20 1
    34   19   37 1
    35   20   25 1
    36   20   21 1
    37   20   38 1
    38   21   22 1
    39   21   39 1
    40   21   40 1
    41   22   23 1
    42   22   41 1
    43   22   42 1
    44   23   24 1
    45   23   43 1
    46   23   48 1
    47   24   25 1
    48   24   44 1
    49   24   45 1
    50   25   46 1
    51   25   47 1
@<TRIPOS>MOLECULE
CHEMBL188434__1
   49    52     0     0     0
SMALL
USER_CHARGES

@<TRIPOS>ATOM
      1 C1         -0.9653   -0.9729    1.0914 C.3       1 <0>        -0.1766
      2 C2         -0.3908    0.1999    0.2944 C.3       1 <0>         0.0831
      3 N1          0.5813   -0.3016   -0.6802 N.pl3     1 <0>        -0.4450
      4 C3          0.3289   -0.6222   -1.9924 C.ar      1 <0>         0.1342
      5 C4         -0.7940   -0.6040   -2.8124 C.ar      1 <0>        -0.0626
      6 C5         -0.6667   -1.0110   -4.1228 C.ar      1 <0>         0.1203
      7 N2          0.4964   -1.4147   -4.6070 N.ar      1 <0>        -0.4385
      8 C6          1.5900   -1.4519   -3.8760 C.ar      1 <0>         0.2406
      9 C7          1.5550   -1.0574   -2.5364 C.ar      1 <0>         0.0349
     10 N3          2.4767   -0.9824   -1.5490 N.2       1 <0>        -0.4223
     11 C8          1.9129   -0.5329   -0.4549 C.2       1 <0>         0.3992
     12 C9          2.6091   -0.3115    0.8319 C.2       1 <0>         0.1036
     13 C10         4.0349   -0.5477    1.0907 C.2       1 <0>         0.3634
     14 N4          4.2821   -0.2400    2.3342 N.2       1 <0>        -0.3237
     15 O1          3.0710    0.1963    2.9251 O.3       1 <0>         0.0734
     16 N5          2.0615    0.1337    1.9333 N.2       1 <0>        -0.2349
     17 N6          4.9617   -1.0180    0.1696 N.pl3     1 <0>        -0.7998
     18 C11        -2.1268   -0.1476   -2.2773 C.3       1 <0>         0.0842
     19 N7         -2.1757    1.3206   -2.2722 N.3       1 <0>        -0.6775
     20 C12        -3.4095    1.8040   -1.6383 C.3       1 <0>         0.0702
     21 C13        -4.5357    1.8456   -2.6752 C.3       1 <0>        -0.1391
     22 C14        -5.7959    2.4245   -2.0286 C.3       1 <0>        -0.0083
     23 N8         -5.5225    3.7836   -1.5463 N.4       1 <0>        -0.5069
     24 C15        -4.4938    3.7433   -0.5000 C.3       1 <0>        -0.0034
     25 C16        -3.1835    3.2151   -1.0878 C.3       1 <0>        -0.1562
     26 H1         -1.5175   -1.6318    0.4213 H         1 <0>         0.0685
     27 H2         -0.1518   -1.5283    1.5581 H         1 <0>         0.0778
     28 H3         -1.6360   -0.5942    1.8627 H         1 <0>         0.1010
     29 H4         -1.1974    0.7137   -0.2285 H         1 <0>         0.0960
     30 H5          0.1020    0.8947    0.9745 H         1 <0>         0.1260
     31 H6         -1.5335   -1.0006   -4.7670 H         1 <0>         0.2177
     32 H7          2.5181   -1.7892   -4.3134 H         1 <0>         0.2294
     33 H8          4.6839   -1.2211   -0.7373 H         1 <0>         0.4274
     34 H9          5.8867   -1.1434    0.4332 H         1 <0>         0.4277
     35 H10        -2.9247   -0.5355   -2.9106 H         1 <0>         0.1168
     36 H11        -2.2567   -0.5190   -1.2608 H         1 <0>         0.0700
     37 H12        -1.3611    1.7079   -1.8201 H         1 <0>         0.3501
     38 H13        -3.6870    1.1351   -0.8237 H         1 <0>         0.0723
     39 H14        -4.2354    2.4738   -3.5138 H         1 <0>         0.1013
     40 H15        -4.7402    0.8358   -3.0311 H         1 <0>         0.1118
     41 H16        -6.5998    2.4553   -2.7641 H         1 <0>         0.1408
     42 H17        -6.0955    1.7954   -1.1904 H         1 <0>         0.1317
     43 H18        -5.1982    4.3529   -2.3137 H         1 <0>         0.4310
     44 H19        -4.3364    4.7477   -0.1070 H         1 <0>         0.1414
     45 H20        -4.8212    3.0861    0.3056 H         1 <0>         0.1333
     46 H21        -2.4215    3.1842   -0.3090 H         1 <0>         0.1100
     47 H22        -2.8551    3.8718   -1.8935 H         1 <0>         0.1035
     48 H23        -6.3692    4.1822   -1.1689 H         1 <0>         0.4383
     49 H24         0.5447   -1.6937   -5.5348 H         1 <0>         0.4643
@<TRIPOS>BOND
     1    1    2 1
     2    1   26 1
     3    1   27 1
     4    1   28 1
     5    2    3 1
     6    2   29 1
     7    2   30 1
     8    3   11 1
     9    3    4 1
    10    4    9 ar
    11    4    5 ar
    12    5    6 ar
    13    5   18 1
    14    6    7 ar
    15    6   31 1
    16    7    8 ar
    17    7   49 1
    18    8    9 ar
    19    8   32 1
    20    9   10 1
    21   10   11 2
    22   11   12 1
    23   12   16 2
    24   12   13 1
    25   13   14 2
    26   13   17 1
    27   14   15 1
    28   15   16 1
    29   17   33 1
    30   17   34 1
    31   18   19 1
    32   18   35 1
    33   18   36 1
    34   19   20 1
    35   19   37 1
    36   20   25 1
    37   20   21 1
    38   20   38 1
    39   21   22 1
    40   21   39 1
    41   21   40 1
    42   22   23 1
    43   22   41 1
    44   22   42 1
    45   23   24 1
    46   23   43 1
    47   23   48 1
    48   24   25 1
    49   24   44 1
    50   24   45 1
    51   25   46 1
    52   25   47 1
@<TRIPOS>MOLECULE
CHEMBL365286
   28    30     0     0     0
SMALL
USER_CHARGES

@<TRIPOS>ATOM
      1 C1         -0.0187    1.5258    0.0104 C.3       1 <0>        -0.1673
      2 C2          0.0021   -0.0041    0.0020 C.3       1 <0>         0.0970
      3 N1          0.7106   -0.4894    1.1889 N.pl3     1 <0>        -0.4624
      4 C3          2.0642   -0.7394    1.2895 C.ar      1 <0>         0.0658
      5 C4          3.1318   -0.6366    0.4078 C.ar      1 <0>        -0.1113
      6 C5          4.4006   -0.9735    0.8288 C.ar      1 <0>        -0.0871
      7 C6          4.6177   -1.4148    2.1270 C.ar      1 <0>        -0.1240
      8 C7          3.5808   -1.5230    3.0089 C.ar      1 <0>        -0.0554
      9 C8          2.2841   -1.1861    2.6052 C.ar      1 <0>         0.0490
     10 N2          1.0839   -1.1883    3.2325 N.2       1 <0>        -0.4575
     11 C9          0.1548   -0.7740    2.4070 C.2       1 <0>         0.3192
     12 C10        -1.2804   -0.6382    2.7400 C.2       1 <0>         0.1395
     13 C11        -1.8936   -0.9327    4.0412 C.2       1 <0>         0.3635
     14 N3         -3.1732   -0.6944    3.9545 N.2       1 <0>        -0.3518
     15 O1         -3.4462   -0.2485    2.6380 O.3       1 <0>         0.0400
     16 N4         -2.2208   -0.2296    1.9275 N.2       1 <0>        -0.2530
     17 N5         -1.2257   -1.3874    5.1706 N.pl3     1 <0>        -0.8015
     18 H1          1.0039    1.9031    0.0027 H         1 <0>         0.0640
     19 H2         -0.5459    1.8868   -0.8726 H         1 <0>         0.0844
     20 H3         -0.5289    1.8773    0.9072 H         1 <0>         0.0626
     21 H4         -1.0205   -0.3814    0.0098 H         1 <0>         0.1057
     22 H5          0.5123   -0.3556   -0.8948 H         1 <0>         0.0982
     23 H6          2.9689   -0.2946   -0.6036 H         1 <0>         0.1270
     24 H7          5.2316   -0.8939    0.1436 H         1 <0>         0.1355
     25 H8          5.6171   -1.6755    2.4426 H         1 <0>         0.1352
     26 H9          3.7612   -1.8681    4.0162 H         1 <0>         0.1353
     27 H10        -0.2678   -1.5371    5.1403 H         1 <0>         0.4312
     28 H11        -1.7171   -1.5554    5.9899 H         1 <0>         0.4182
@<TRIPOS>BOND
     1    1    2 1
     2    1   18 1
     3    1   19 1
     4    1   20 1
     5    2    3 1
     6    2   21 1
     7    2   22 1
     8    3   11 1
     9    3    4 1
    10    4    9 ar
    11    4    5 ar
    12    5    6 ar
    13    5   23 1
    14    6    7 ar
    15    6   24 1
    16    7    8 ar
    17    7   25 1
    18    8    9 ar
    19    8   26 1
    20    9   10 1
    21   10   11 2
    22   11   12 1
    23   12   16 2
    24   12   13 1
    25   13   14 2
    26   13   17 1
    27   14   15 1
    28   15   16 1
    29   17   27 1
    30   17   28 1
@<TRIPOS>MOLECULE
CHEMBL1083074
   45    48     0     0     0
SMALL
USER_CHARGES

@<TRIPOS>ATOM
      1 C1         -0.0184    1.5028    0.0103 C.3       1 <0>        -0.1128
      2 C2          0.0021   -0.0041    0.0020 C.2       1 <0>        -0.0559
      3 C3          0.0056   -0.7334   -1.2531 C.ar      1 <0>        -0.0769
      4 C4         -0.0085   -0.2210   -2.5743 C.ar      1 <0>        -0.0294
      5 C5         -0.0034   -1.0589   -3.6440 C.ar      1 <0>        -0.1441
      6 C6          0.0160   -2.4389   -3.4860 C.ar      1 <0>        -0.1060
      7 C7          0.0306   -2.9785   -2.2156 C.ar      1 <0>        -0.0500
      8 C8          0.0253   -2.1402   -1.1206 C.ar      1 <0>        -0.1058
      9 S1          0.0377   -2.3990    0.6345 S.3       1 <0>         0.1166
     10 C9          0.0230   -0.6976    1.1662 C.2       1 <0>        -0.1018
     11 C10         0.0301   -0.1698    2.5458 C.ar      1 <0>         0.2910
     12 C11         0.0585   -1.0418    3.6407 C.ar      1 <0>        -0.2744
     13 C12         0.0640   -0.5009    4.9128 C.ar      1 <0>         0.2089
     14 N1          0.0424    0.8153    5.0578 N.ar      1 <0>        -0.5647
     15 C13         0.0157    1.6182    4.0039 C.ar      1 <0>         0.5772
     16 N2          0.0150    1.1444    2.7681 N.ar      1 <0>        -0.5595
     17 N3         -0.0067    2.9881    4.2006 N.pl3     1 <0>        -0.8162
     18 C14        -0.0198   -0.4774   -5.0342 C.3       1 <0>         0.1406
     19 C15        -1.4218   -0.5304   -5.5843 C.ar      1 <0>        -0.1227
     20 C16        -1.9157   -1.7128   -6.1043 C.ar      1 <0>        -0.1306
     21 C17        -3.2013   -1.7647   -6.6098 C.ar      1 <0>        -0.0844
     22 C18        -3.9960   -0.6345   -6.5969 C.ar      1 <0>        -0.1197
     23 C19        -3.5030    0.5527   -6.0759 C.ar      1 <0>         0.1275
     24 C20        -2.2144    0.6006   -5.5637 C.ar      1 <0>        -0.1157
     25 O1         -4.2827    1.6657   -6.0621 O.3       1 <0>        -0.4934
     26 N4          0.8760   -1.2550   -5.9007 N.4       1 <0>        -0.6344
     27 H1          1.0042    1.8801    0.0026 H         1 <0>         0.0777
     28 H2         -0.5455    1.8639   -0.8728 H         1 <0>         0.0602
     29 H3         -0.5286    1.8543    0.9071 H         1 <0>         0.1057
     30 H4         -0.0237    0.8472   -2.7327 H         1 <0>         0.1380
     31 H5          0.0193   -3.0851   -4.3513 H         1 <0>         0.1302
     32 H6          0.0454   -4.0499   -2.0801 H         1 <0>         0.1462
     33 H7          0.0754   -2.1118    3.4949 H         1 <0>         0.1461
     34 H8          0.0854   -1.1450    5.7795 H         1 <0>         0.1779
     35 H9         -0.0028    3.3490    5.1009 H         1 <0>         0.4199
     36 H10        -0.0264    3.5873    3.4380 H         1 <0>         0.4156
     37 H11         0.3177    0.5584   -4.9988 H         1 <0>         0.1563
     38 H12        -1.2958   -2.5971   -6.1159 H         1 <0>         0.1223
     39 H13        -3.5848   -2.6893   -7.0153 H         1 <0>         0.1414
     40 H14        -5.0001   -0.6754   -6.9926 H         1 <0>         0.1426
     41 H15        -1.8299    1.5226   -5.1531 H         1 <0>         0.1401
     42 H16        -4.8135    1.7642   -5.2599 H         1 <0>         0.4036
     43 H17         0.8650   -0.8657   -6.8315 H         1 <0>         0.4416
     44 H18         1.8147   -1.2195   -5.5324 H         1 <0>         0.4417
     45 H19         0.5635   -2.2139   -5.9335 H         1 <0>         0.4297
@<TRIPOS>BOND
     1    1    2 1
     2    1   27 1
     3    1   28 1
     4    1   29 1
     5    2   10 2
     6    2    3 1
     7    3    8 ar
     8    3    4 ar
     9    4    5 ar
    10    4   30 1
    11    5    6 ar
    12    5   18 1
    13    6    7 ar
    14    6   31 1
    15    7    8 ar
    16    7   32 1
    17    8    9 1
    18    9   10 1
    19   10   11 1
    20   11   16 ar
    21   11   12 ar
    22   12   13 ar
    23   12   33 1
    24   13   14 ar
    25   13   34 1
    26   14   15 ar
    27   15   16 ar
    28   15   17 1
    29   17   35 1
    30   17   36 1
    31   18   19 1
    32   18   26 1
    33   18   37 1
    34   19   24 ar
    35   19   20 ar
    36   20   21 ar
    37   20   38 1
    38   21   22 ar
    39   21   39 1
    40   22   23 ar
    41   22   40 1
    42   23   24 ar
    43   23   25 1
    44   24   41 1
    45   25   42 1
    46   26   43 1
    47   26   44 1
    48   26   45 1
@<TRIPOS>MOLECULE
CHEMBL1083074__1
   45    48     0     0     0
SMALL
USER_CHARGES

@<TRIPOS>ATOM
      1 C1         -0.0184    1.5028    0.0103 C.3       1 <0>        -0.1129
      2 C2          0.0021   -0.0041    0.0020 C.2       1 <0>        -0.0553
      3 C3          0.0056   -0.7334   -1.2531 C.ar      1 <0>        -0.0769
      4 C4         -0.0085   -0.2210   -2.5743 C.ar      1 <0>        -0.0285
      5 C5         -0.0034   -1.0589   -3.6440 C.ar      1 <0>        -0.1450
      6 C6          0.0160   -2.4389   -3.4860 C.ar      1 <0>        -0.1061
      7 C7          0.0306   -2.9785   -2.2156 C.ar      1 <0>        -0.0501
      8 C8          0.0253   -2.1402   -1.1206 C.ar      1 <0>        -0.1056
      9 S1          0.0377   -2.3990    0.6345 S.3       1 <0>         0.1166
     10 C9          0.0230   -0.6976    1.1662 C.2       1 <0>        -0.1023
     11 C10         0.0301   -0.1698    2.5458 C.ar      1 <0>         0.2914
     12 C11         0.0585   -1.0418    3.6407 C.ar      1 <0>        -0.2744
     13 C12         0.0640   -0.5009    4.9128 C.ar      1 <0>         0.2088
     14 N1          0.0424    0.8153    5.0578 N.ar      1 <0>        -0.5648
     15 C13         0.0157    1.6182    4.0039 C.ar      1 <0>         0.5772
     16 N2          0.0150    1.1444    2.7681 N.ar      1 <0>        -0.5595
     17 N3         -0.0067    2.9881    4.2006 N.pl3     1 <0>        -0.8163
     18 C14        -0.0198   -0.4774   -5.0342 C.3       1 <0>         0.1411
     19 C15         1.3763   -0.4920   -5.6013 C.ar      1 <0>        -0.1225
     20 C16         1.8920   -1.6577   -6.1376 C.ar      1 <0>        -0.1313
     21 C17         3.1724   -1.6744   -6.6586 C.ar      1 <0>        -0.0841
     22 C18         3.9404   -0.5259   -6.6442 C.ar      1 <0>        -0.1203
     23 C19         3.4254    0.6446   -6.1067 C.ar      1 <0>         0.1280
     24 C20         2.1378    0.6603   -5.5900 C.ar      1 <0>        -0.1160
     25 O1          4.1788    1.7756   -6.0914 O.3       1 <0>        -0.4923
     26 N4         -0.9043   -1.2794   -5.8900 N.4       1 <0>        -0.6344
     27 H1          1.0042    1.8801    0.0026 H         1 <0>         0.0778
     28 H2         -0.5455    1.8639   -0.8728 H         1 <0>         0.0602
     29 H3         -0.5286    1.8543    0.9071 H         1 <0>         0.1059
     30 H4         -0.0237    0.8472   -2.7327 H         1 <0>         0.1380
     31 H5          0.0193   -3.0851   -4.3513 H         1 <0>         0.1301
     32 H6          0.0454   -4.0499   -2.0801 H         1 <0>         0.1462
     33 H7          0.0754   -2.1118    3.4949 H         1 <0>         0.1461
     34 H8          0.0854   -1.1450    5.7795 H         1 <0>         0.1778
     35 H9         -0.0028    3.3490    5.1009 H         1 <0>         0.4198
     36 H10        -0.0264    3.5873    3.4380 H         1 <0>         0.4156
     37 H11        -0.3852    0.5487   -4.9946 H         1 <0>         0.1562
     38 H12         1.2936   -2.5566   -6.1492 H         1 <0>         0.1223
     39 H13         3.5729   -2.5860   -7.0769 H         1 <0>         0.1414
     40 H14         4.9408   -0.5396   -7.0506 H         1 <0>         0.1426
     41 H15         1.7329    1.5716   -5.1753 H         1 <0>         0.1403
     42 H16         4.0774    2.3264   -6.8797 H         1 <0>         0.4026
     43 H17        -1.8391   -1.2697   -5.5103 H         1 <0>         0.4417
     44 H18        -0.9153   -0.8901   -6.8208 H         1 <0>         0.4410
     45 H19        -0.5661   -2.2294   -5.9266 H         1 <0>         0.4298
@<TRIPOS>BOND
     1    1    2 1
     2    1   27 1
     3    1   28 1
     4    1   29 1
     5    2   10 2
     6    2    3 1
     7    3    8 ar
     8    3    4 ar
     9    4    5 ar
    10    4   30 1
    11    5    6 ar
    12    5   18 1
    13    6    7 ar
    14    6   31 1
    15    7    8 ar
    16    7   32 1
    17    8    9 1
    18    9   10 1
    19   10   11 1
    20   11   16 ar
    21   11   12 ar
    22   12   13 ar
    23   12   33 1
    24   13   14 ar
    25   13   34 1
    26   14   15 ar
    27   15   16 ar
    28   15   17 1
    29   17   35 1
    30   17   36 1
    31   18   19 1
    32   18   26 1
    33   18   37 1
    34   19   24 ar
    35   19   20 ar
    36   20   21 ar
    37   20   38 1
    38   21   22 ar
    39   21   39 1
    40   22   23 ar
    41   22   40 1
    42   23   24 ar
    43   23   25 1
    44   24   41 1
    45   25   42 1
    46   26   43 1
    47   26   44 1
    48   26   45 1
@<TRIPOS>MOLECULE
CHEMBL441702
   50    54     0     0     0
SMALL
USER_CHARGES

@<TRIPOS>ATOM
      1 C1         -0.0180    1.5022    0.0184 C.3       1 <0>        -0.1181
      2 C2          0.0022   -0.0046   -0.0007 C.2       1 <0>         0.2375
      3 C3         -1.1578   -0.6837   -0.0012 C.2       1 <0>        -0.2736
      4 C4         -1.1577   -2.1901   -0.0200 C.3       1 <0>         0.0035
      5 C5          0.0474   -2.7082    0.7678 C.3       1 <0>        -0.1341
      6 C6          1.2835   -1.9604    0.3401 C.2       1 <0>         0.5242
      7 O1          2.3548   -2.5279    0.3179 O.2       1 <0>        -0.5025
      8 N1          1.2038   -0.6654   -0.0229 N.am      1 <0>        -0.6612
      9 C7         -1.0732   -2.6750   -1.4444 C.ar      1 <0>        -0.0776
     10 C8          0.0286   -2.3270   -2.2238 C.ar      1 <0>        -0.1173
     11 C9          0.1356   -2.7478   -3.5136 C.ar      1 <0>        -0.0964
     12 C10        -0.8781   -3.5458   -4.0710 C.ar      1 <0>        -0.0510
     13 C11        -0.8025   -3.9998   -5.3989 C.ar      1 <0>        -0.1061
     14 C12        -1.8030   -4.7713   -5.9047 C.ar      1 <0>        -0.1150
     15 C13        -2.9047   -5.1195   -5.1253 C.ar      1 <0>        -0.1139
     16 C14        -3.0119   -4.6982   -3.8356 C.ar      1 <0>        -0.1067
     17 C15        -1.9983   -3.9000   -3.2784 C.ar      1 <0>        -0.0468
     18 C16        -2.0712   -3.4507   -1.9487 C.ar      1 <0>        -0.0985
     19 C17        -2.3874    0.0210    0.0164 C.2       1 <0>         0.5784
     20 O2         -2.3911    1.2385    0.0321 O.2       1 <0>        -0.5311
     21 N2         -3.5525   -0.6565    0.0159 N.am      1 <0>        -0.6694
     22 C18        -4.7648    0.0353    0.1316 C.ar      1 <0>         0.1145
     23 C19        -4.9073    1.2904   -0.4616 C.ar      1 <0>        -0.0629
     24 C20        -6.0802    1.9808   -0.3607 C.ar      1 <0>        -0.1261
     25 C21        -7.1535    1.4355    0.3401 C.ar      1 <0>         0.1181
     26 C22        -7.0209    0.1698    0.9421 C.ar      1 <0>        -0.1632
     27 C23        -5.8146   -0.5304    0.8269 C.ar      1 <0>        -0.0715
     28 C24        -8.2986   -0.1139    1.5877 C.2       1 <0>         0.0746
     29 N3         -9.0875    0.8998    1.3721 N.2       1 <0>        -0.2474
     30 N4         -8.4261    1.8703    0.6126 N.pl3     1 <0>        -0.5107
     31 H1         -8.8059    2.7152    0.3249 H         1 <0>         0.4404
     32 H2          1.0047    1.8793    0.0113 H         1 <0>         0.0618
     33 H3         -0.5469    1.8696   -0.8609 H         1 <0>         0.1033
     34 H4         -0.5263    1.8473    0.9188 H         1 <0>         0.1048
     35 H5         -2.0762   -2.5595    0.4360 H         1 <0>         0.0999
     36 H6         -0.1209   -2.5531    1.8335 H         1 <0>         0.1145
     37 H7          0.1800   -3.7722    0.5714 H         1 <0>         0.1170
     38 H8          2.0049   -0.1935   -0.2994 H         1 <0>         0.4170
     39 H9          0.8091   -1.7139   -1.7979 H         1 <0>         0.1197
     40 H10         0.9949   -2.4697   -4.1058 H         1 <0>         0.1267
     41 H11         0.0450   -3.7376   -6.0148 H         1 <0>         0.1269
     42 H12        -1.7426   -5.1185   -6.9256 H         1 <0>         0.1238
     43 H13        -3.6852   -5.7326   -5.5512 H         1 <0>         0.1241
     44 H14        -3.8715   -4.9756   -3.2436 H         1 <0>         0.1280
     45 H15        -2.9168   -3.7163   -1.3316 H         1 <0>         0.1281
     46 H16        -3.5514   -1.6231   -0.0645 H         1 <0>         0.4068
     47 H17        -4.0799    1.7204   -1.0065 H         1 <0>         0.1480
     48 H18        -6.1763    2.9514   -0.8245 H         1 <0>         0.1295
     49 H19        -5.7046   -1.5038    1.2818 H         1 <0>         0.1321
     50 H20        -8.5461   -1.0056    2.1445 H         1 <0>         0.1976
@<TRIPOS>BOND
     1    1    2 1
     2    1   32 1
     3    1   33 1
     4    1   34 1
     5    2    8 1
     6    2    3 2
     7    3    4 1
     8    3   19 1
     9    4    5 1
    10    4    9 1
    11    4   35 1
    12    5    6 1
    13    5   36 1
    14    5   37 1
    15    6    7 2
    16    6    8 am
    17    8   38 1
    18    9   18 ar
    19    9   10 ar
    20   10   11 ar
    21   10   39 1
    22   11   12 ar
    23   11   40 1
    24   12   17 ar
    25   12   13 ar
    26   13   14 ar
    27   13   41 1
    28   14   15 ar
    29   14   42 1
    30   15   16 ar
    31   15   43 1
    32   16   17 ar
    33   16   44 1
    34   17   18 ar
    35   18   45 1
    36   19   20 2
    37   19   21 am
    38   21   22 1
    39   21   46 1
    40   22   27 ar
    41   22   23 ar
    42   23   24 ar
    43   23   47 1
    44   24   25 ar
    45   24   48 1
    46   25   30 1
    47   25   26 ar
    48   26   27 ar
    49   26   28 1
    50   27   49 1
    51   28   29 2
    52   28   50 1
    53   29   30 1
    54   30   31 1
@<TRIPOS>MOLECULE
CHEMBL441702__1
   50    54     0     0     0
SMALL
USER_CHARGES

@<TRIPOS>ATOM
      1 C1         -0.0180    1.5022    0.0184 C.3       1 <0>        -0.1179
      2 C2          0.0021   -0.0046   -0.0019 C.2       1 <0>         0.2373
      3 C3         -1.1578   -0.6837   -0.0025 C.2       1 <0>        -0.2736
      4 C4         -1.1577   -2.1901   -0.0228 C.3       1 <0>         0.0042
      5 C5          0.0359   -2.6873   -0.8409 C.3       1 <0>        -0.1348
      6 C6          1.2781   -1.9506   -0.4117 C.2       1 <0>         0.5242
      7 O1          2.3496   -2.5181   -0.4202 O.2       1 <0>        -0.5031
      8 N1          1.2038   -0.6653   -0.0253 N.am      1 <0>        -0.6601
      9 C7         -1.0530   -2.7118    1.3872 C.ar      1 <0>        -0.0769
     10 C8          0.0545   -2.3746    2.1633 C.ar      1 <0>        -0.1170
     11 C9          0.1800   -2.8292    3.4399 C.ar      1 <0>        -0.0965
     12 C10        -0.8204   -3.6507    3.9871 C.ar      1 <0>        -0.0511
     13 C11        -0.7260   -4.1389    5.3016 C.ar      1 <0>        -0.1059
     14 C12        -1.7144   -4.9318    5.7980 C.ar      1 <0>        -0.1152
     15 C13        -2.8220   -5.2686    5.0219 C.ar      1 <0>        -0.1137
     16 C14        -2.9473   -4.8144    3.7452 C.ar      1 <0>        -0.1068
     17 C15        -1.9467   -3.9932    3.1980 C.ar      1 <0>        -0.0467
     18 C16        -2.0438   -3.5005    1.8854 C.ar      1 <0>        -0.0978
     19 C17        -2.3874    0.0210    0.0157 C.2       1 <0>         0.5784
     20 O2         -2.3911    1.2385    0.0318 O.2       1 <0>        -0.5312
     21 N2         -3.5525   -0.6564    0.0153 N.am      1 <0>        -0.6690
     22 C18        -4.7648    0.0353    0.1303 C.ar      1 <0>         0.1142
     23 C19        -4.9072    1.2902   -0.4635 C.ar      1 <0>        -0.0633
     24 C20        -6.0801    1.9806   -0.3632 C.ar      1 <0>        -0.1264
     25 C21        -7.1536    1.4357    0.3375 C.ar      1 <0>         0.1180
     26 C22        -7.0211    0.1703    0.9401 C.ar      1 <0>        -0.1630
     27 C23        -5.8148   -0.5300    0.8256 C.ar      1 <0>        -0.0702
     28 C24        -8.2991   -0.1132    1.5855 C.2       1 <0>         0.0747
     29 N3         -9.0879    0.9005    1.3693 N.2       1 <0>        -0.2473
     30 N4         -8.4263    1.8705    0.6095 N.pl3     1 <0>        -0.5107
     31 H1         -8.8060    2.7153    0.3213 H         1 <0>         0.4404
     32 H2          1.0046    1.8793    0.0110 H         1 <0>         0.0619
     33 H3         -0.5474    1.8703   -0.8604 H         1 <0>         0.1050
     34 H4         -0.5258    1.8466    0.9193 H         1 <0>         0.1033
     35 H5         -2.0827   -2.5476   -0.4751 H         1 <0>         0.0990
     36 H6          0.1711   -3.7560   -0.6742 H         1 <0>         0.1167
     37 H7         -0.1476   -2.5046   -1.8997 H         1 <0>         0.1144
     38 H8          2.0114   -0.2005    0.2443 H         1 <0>         0.4167
     39 H9          0.8247   -1.7435    1.7453 H         1 <0>         0.1189
     40 H10         1.0441   -2.5603    4.0294 H         1 <0>         0.1266
     41 H11         0.1266   -3.8864    5.9145 H         1 <0>         0.1267
     42 H12        -1.6393   -5.3059    6.8083 H         1 <0>         0.1238
     43 H13        -3.5923   -5.8999    5.4399 H         1 <0>         0.1242
     44 H14        -3.8110   -5.0839    3.1554 H         1 <0>         0.1281
     45 H15        -2.8985   -3.7497    1.2739 H         1 <0>         0.1280
     46 H16        -3.5514   -1.6231   -0.0647 H         1 <0>         0.4066
     47 H17        -4.0796    1.7199   -1.0083 H         1 <0>         0.1483
     48 H18        -6.1761    2.9510   -0.8275 H         1 <0>         0.1296
     49 H19        -5.7050   -1.5032    1.2810 H         1 <0>         0.1316
     50 H20        -8.5466   -1.0046    2.1427 H         1 <0>         0.1974
@<TRIPOS>BOND
     1    1    2 1
     2    1   32 1
     3    1   33 1
     4    1   34 1
     5    2    8 1
     6    2    3 2
     7    3    4 1
     8    3   19 1
     9    4    5 1
    10    4    9 1
    11    4   35 1
    12    5    6 1
    13    5   36 1
    14    5   37 1
    15    6    7 2
    16    6    8 am
    17    8   38 1
    18    9   18 ar
    19    9   10 ar
    20   10   11 ar
    21   10   39 1
    22   11   12 ar
    23   11   40 1
    24   12   17 ar
    25   12   13 ar
    26   13   14 ar
    27   13   41 1
    28   14   15 ar
    29   14   42 1
    30   15   16 ar
    31   15   43 1
    32   16   17 ar
    33   16   44 1
    34   17   18 ar
    35   18   45 1
    36   19   20 2
    37   19   21 am
    38   21   22 1
    39   21   46 1
    40   22   27 ar
    41   22   23 ar
    42   23   24 ar
    43   23   47 1
    44   24   25 ar
    45   24   48 1
    46   25   30 1
    47   25   26 ar
    48   26   27 ar
    49   26   28 1
    50   27   49 1
    51   28   29 2
    52   28   50 1
    53   29   30 1
    54   30   31 1
@<TRIPOS>MOLECULE
CHEMBL521642
   59    62     0     0     0
SMALL
USER_CHARGES

@<TRIPOS>ATOM
      1 C1         -0.0187    1.5258    0.0104 C.3       1 <0>        -0.1654
      2 C2          0.0021   -0.0041    0.0020 C.3       1 <0>         0.0997
      3 N1          0.6878   -0.4765   -1.2033 N.pl3     1 <0>        -0.4456
      4 C3          0.1084   -0.7452   -2.4220 C.ar      1 <0>         0.0734
      5 C4         -1.1885   -0.6848   -2.9333 C.ar      1 <0>         0.0979
      6 C5         -1.4068   -1.0423   -4.2530 C.ar      1 <0>         0.0255
      7 N2         -0.4156   -1.4373   -5.0310 N.ar      1 <0>        -0.4288
      8 C6          0.8360   -1.5144   -4.6003 C.ar      1 <0>         0.2963
      9 C7          1.1491   -1.1685   -3.2692 C.ar      1 <0>         0.0642
     10 N3          2.2847   -1.1401   -2.5504 N.2       1 <0>        -0.4357
     11 C8          2.0279   -0.7287   -1.3319 C.2       1 <0>         0.3425
     12 C9          3.0324   -0.5655   -0.2583 C.2       1 <0>         0.1311
     13 C10         4.4724   -0.8253   -0.3802 C.2       1 <0>         0.3646
     14 N4          5.0335   -0.5707    0.7697 N.2       1 <0>        -0.3434
     15 O1          4.0212   -0.1472    1.6654 O.3       1 <0>         0.0494
     16 N5          2.7917   -0.1594    0.9619 N.2       1 <0>        -0.2485
     17 N6          5.1251   -1.2670   -1.5235 N.pl3     1 <0>        -0.7999
     18 C11         1.8718   -1.9500   -5.4881 C.1       1 <0>        -0.1207
     19 C12         2.7209   -2.3071   -6.2159 C.1       1 <0>        -0.0802
     20 C13         3.7856   -2.7549   -7.1284 C.3       1 <0>         0.2403
     21 C14         5.1250   -2.7540   -6.3888 C.3       1 <0>        -0.1769
     22 C15         3.4749   -4.1704   -7.6190 C.3       1 <0>        -0.1771
     23 O2          3.8585   -1.8683   -8.2468 O.3       1 <0>        -0.5533
     24 O3         -2.2219   -0.2814   -2.1476 O.3       1 <0>        -0.3053
     25 C16        -3.5183   -0.2475   -2.7478 C.3       1 <0>         0.0602
     26 C17        -4.5450    0.2275   -1.7176 C.3       1 <0>        -0.1101
     27 H1         -4.2313    1.1872   -1.3070 H         1 <0>         0.1084
     28 C18        -4.6505   -0.8019   -0.5887 C.3       1 <0>        -0.1341
     29 C19        -5.7357   -0.3560    0.3956 C.3       1 <0>        -0.1476
     30 C20        -7.0574   -0.1814   -0.3555 C.3       1 <0>        -0.0100
     31 N7         -6.8984    0.8337   -1.4036 N.4       1 <0>        -0.5022
     32 C21        -5.9106    0.3814   -2.3906 C.3       1 <0>        -0.0035
     33 H2          1.0039    1.9031    0.0027 H         1 <0>         0.0656
     34 H3         -0.5459    1.8868   -0.8726 H         1 <0>         0.0629
     35 H4         -0.5289    1.8773    0.9072 H         1 <0>         0.0853
     36 H5          0.5293   -0.3651    0.8851 H         1 <0>         0.1094
     37 H6         -1.0205   -0.3814    0.0098 H         1 <0>         0.1017
     38 H7         -2.4085   -0.9976   -4.6543 H         1 <0>         0.1718
     39 H8          4.6220   -1.4309   -2.3365 H         1 <0>         0.4312
     40 H9          6.0842   -1.4116   -1.5092 H         1 <0>         0.4212
     41 H10         5.0694   -3.4303   -5.5357 H         1 <0>         0.0725
     42 H11         5.9134   -3.0856   -7.0645 H         1 <0>         0.0747
     43 H12         5.3464   -1.7456   -6.0392 H         1 <0>         0.0708
     44 H13         2.5207   -4.1710   -8.1459 H         1 <0>         0.0706
     45 H14         4.2633   -4.5020   -8.2948 H         1 <0>         0.0744
     46 H15         3.4193   -4.8466   -6.7660 H         1 <0>         0.0730
     47 H16         4.5403   -2.1031   -8.8910 H         1 <0>         0.3893
     48 H17        -3.5089    0.4388   -3.5945 H         1 <0>         0.0810
     49 H18        -3.7852   -1.2465   -3.0928 H         1 <0>         0.0808
     50 H19        -4.9136   -1.7741   -1.0053 H         1 <0>         0.0850
     51 H20        -3.6947   -0.8730   -0.0697 H         1 <0>         0.0989
     52 H21        -5.8554   -1.1114    1.1722 H         1 <0>         0.1153
     53 H22        -5.4475    0.5918    0.8502 H         1 <0>         0.0899
     54 H23        -7.3448   -1.1298   -0.8094 H         1 <0>         0.1322
     55 H24        -7.8322    0.1358    0.3424 H         1 <0>         0.1359
     56 H25        -7.7848    0.9849   -1.8613 H         1 <0>         0.4361
     57 H26        -5.8384    1.1139   -3.1947 H         1 <0>         0.1390
     58 H27        -6.2228   -0.5785   -2.8018 H         1 <0>         0.1366
     59 H28        -6.5849    1.6982   -0.9883 H         1 <0>         0.4295
@<TRIPOS>BOND
     1    1    2 1
     2    1   33 1
     3    1   34 1
     4    1   35 1
     5    2    3 1
     6    2   36 1
     7    2   37 1
     8    3   11 1
     9    3    4 1
    10    4    9 ar
    11    4    5 ar
    12    5    6 ar
    13    5   24 1
    14    6    7 ar
    15    6   38 1
    16    7    8 ar
    17    8    9 ar
    18    8   18 1
    19    9   10 1
    20   10   11 2
    21   11   12 1
    22   12   16 2
    23   12   13 1
    24   13   14 2
    25   13   17 1
    26   14   15 1
    27   15   16 1
    28   17   39 1
    29   17   40 1
    30   18   19 3
    31   19   20 1
    32   20   21 1
    33   20   22 1
    34   20   23 1
    35   21   41 1
    36   21   42 1
    37   21   43 1
    38   22   44 1
    39   22   45 1
    40   22   46 1
    41   23   47 1
    42   24   25 1
    43   25   26 1
    44   25   48 1
    45   25   49 1
    46   26   27 1
    47   26   32 1
    48   26   28 1
    49   28   29 1
    50   28   50 1
    51   28   51 1
    52   29   30 1
    53   29   52 1
    54   29   53 1
    55   30   31 1
    56   30   54 1
    57   30   55 1
    58   31   32 1
    59   31   56 1
    60   31   59 1
    61   32   57 1
    62   32   58 1
@<TRIPOS>MOLECULE
CHEMBL1083072
   41    44     0     0     0
SMALL
USER_CHARGES

@<TRIPOS>ATOM
      1 C1         -0.4650    1.6583   -0.0768 C.3       1 <0>        -0.1115
      2 C2         -0.4095    0.1529   -0.0328 C.2       1 <0>        -0.0413
      3 C3         -0.2880   -0.6157   -1.2585 C.ar      1 <0>        -0.0611
      4 C4         -0.2076   -0.1432   -2.5922 C.ar      1 <0>        -0.1181
      5 C5         -0.0953   -1.0255   -3.6406 C.ar      1 <0>         0.1799
      6 C6         -0.0572   -2.4034   -3.4252 C.ar      1 <0>        -0.1243
      7 C7         -0.1334   -2.8919   -2.1377 C.ar      1 <0>        -0.0466
      8 C8         -0.2463   -2.0162   -1.0781 C.ar      1 <0>        -0.1321
      9 S1         -0.3693   -2.2190    0.6807 S.3       1 <0>         0.0690
     10 C9         -0.4667   -0.5027    1.1521 C.2       1 <0>        -0.1223
     11 C10        -0.5835    0.0683    2.5093 C.ar      1 <0>         0.3050
     12 C11        -0.6234   -0.7677    3.6317 C.ar      1 <0>        -0.2764
     13 C12        -0.7329   -0.1869    4.8813 C.ar      1 <0>         0.2028
     14 N1         -0.7962    1.1322    4.9799 N.ar      1 <0>        -0.5731
     15 C13        -0.7563    1.9005    3.9009 C.ar      1 <0>         0.5739
     16 N2         -0.6470    1.3881    2.6855 N.ar      1 <0>        -0.5604
     17 N3         -0.8259    3.2750    4.0491 N.pl3     1 <0>        -0.8198
     18 N4         -0.0182   -0.5323   -4.9484 N.pl3     1 <0>        -0.6877
     19 C14        -0.5251   -1.2855   -6.0100 C.ar      1 <0>         0.1981
     20 C15        -1.6039   -2.1378   -5.8059 C.ar      1 <0>        -0.1733
     21 C16        -2.1045   -2.8828   -6.8556 C.ar      1 <0>        -0.0687
     22 C17        -1.5349   -2.7828   -8.1110 C.ar      1 <0>        -0.1772
     23 C18        -0.4579   -1.9332   -8.3210 C.ar      1 <0>         0.1396
     24 C19         0.0444   -1.1797   -7.2715 C.ar      1 <0>        -0.1944
     25 O1          0.1009   -1.8362   -9.5559 O.3       1 <0>        -0.4990
     26 H1          0.5460    2.0610   -0.0155 H         1 <0>         0.0739
     27 H2         -0.9273    1.9776   -1.0108 H         1 <0>         0.0607
     28 H3         -1.0537    2.0249    0.7640 H         1 <0>         0.1006
     29 H4         -0.2353    0.9187   -2.7867 H         1 <0>         0.1301
     30 H5          0.0310   -3.0825   -4.2604 H         1 <0>         0.1402
     31 H6         -0.1051   -3.9567   -1.9597 H         1 <0>         0.1382
     32 H7         -0.5703   -1.8409    3.5237 H         1 <0>         0.1459
     33 H8         -0.7667   -0.8026    5.7680 H         1 <0>         0.1739
     34 H9         -0.9027    3.6641    4.9343 H         1 <0>         0.4166
     35 H10        -0.7977    3.8491    3.2678 H         1 <0>         0.4148
     36 H11         0.3871    0.3326   -5.1174 H         1 <0>         0.4115
     37 H12        -2.0508   -2.2178   -4.8260 H         1 <0>         0.1287
     38 H13        -2.9424   -3.5450   -6.6951 H         1 <0>         0.1309
     39 H14        -1.9285   -3.3670   -8.9297 H         1 <0>         0.1292
     40 H15         0.8799   -0.5150   -7.4340 H         1 <0>         0.1301
     41 H16        -0.2940   -1.1520  -10.1137 H         1 <0>         0.3935
@<TRIPOS>BOND
     1    1    2 1
     2    1   26 1
     3    1   27 1
     4    1   28 1
     5    2   10 2
     6    2    3 1
     7    3    8 ar
     8    3    4 ar
     9    4    5 ar
    10    4   29 1
    11    5    6 ar
    12    5   18 1
    13    6    7 ar
    14    6   30 1
    15    7    8 ar
    16    7   31 1
    17    8    9 1
    18    9   10 1
    19   10   11 1
    20   11   16 ar
    21   11   12 ar
    22   12   13 ar
    23   12   32 1
    24   13   14 ar
    25   13   33 1
    26   14   15 ar
    27   15   16 ar
    28   15   17 1
    29   17   34 1
    30   17   35 1
    31   18   19 1
    32   18   36 1
    33   19   24 ar
    34   19   20 ar
    35   20   21 ar
    36   20   37 1
    37   21   22 ar
    38   21   38 1
    39   22   23 ar
    40   22   39 1
    41   23   24 ar
    42   23   25 1
    43   24   40 1
    44   25   41 1
@<TRIPOS>MOLECULE
CHEMBL493911
   44    47     0     0     0
SMALL
USER_CHARGES

@<TRIPOS>ATOM
      1 C1          0.1624    1.6801   -0.3464 C.3       1 <0>        -0.1648
      2 C2          0.0713    0.1723   -0.1033 C.3       1 <0>         0.0981
      3 N1          0.6893   -0.5412   -1.2237 N.pl3     1 <0>        -0.4472
      4 C3          0.0588   -0.9591   -2.3726 C.ar      1 <0>         0.0719
      5 C4          1.0430   -1.5946   -3.1553 C.ar      1 <0>         0.0391
      6 C5          0.6744   -2.1237   -4.3954 C.ar      1 <0>         0.1664
      7 N2         -0.5680   -2.0267   -4.8173 N.ar      1 <0>        -0.4456
      8 C6         -1.5149   -1.4366   -4.1068 C.ar      1 <0>         0.0124
      9 C7         -1.2423   -0.8846   -2.8682 C.ar      1 <0>         0.0864
     10 O1         -2.2245   -0.2804   -2.1477 O.3       1 <0>        -0.2969
     11 C8         -3.4997   -0.1421   -2.7778 C.3       1 <0>         0.0732
     12 C9         -4.3122   -1.4244   -2.5764 C.3       1 <0>        -0.1812
     13 C10        -5.7044   -1.2403   -3.1840 C.3       1 <0>        -0.0029
     14 N3         -6.3854   -0.1193   -2.5253 N.4       1 <0>        -0.5078
     15 C11        -5.6499    1.1262   -2.7746 C.3       1 <0>        -0.0015
     16 C12        -4.2556    1.0332   -2.1512 C.3       1 <0>        -0.1459
     17 N4          2.2024   -1.5352   -2.4608 N.2       1 <0>        -0.4408
     18 C13         2.0038   -0.9114   -1.3255 C.2       1 <0>         0.3452
     19 C14         3.0431   -0.6496   -0.3052 C.2       1 <0>         0.1285
     20 C15         4.4573   -1.0333   -0.3992 C.2       1 <0>         0.3637
     21 N5          5.0627   -0.6354    0.6858 N.2       1 <0>        -0.3426
     22 O2          4.1053    0.0046    1.5104 O.3       1 <0>         0.0505
     23 N6          2.8615   -0.0316    0.8332 N.2       1 <0>        -0.2474
     24 N7          5.0489   -1.7047   -1.4610 N.pl3     1 <0>        -0.8004
     25 H1          1.2092    1.9721   -0.4300 H         1 <0>         0.0652
     26 H2         -0.3598    1.9315   -1.2695 H         1 <0>         0.0617
     27 H3         -0.2974    2.2109    0.4873 H         1 <0>         0.0867
     28 H4          0.5935   -0.0791    0.8199 H         1 <0>         0.1094
     29 H5         -0.9755   -0.1197   -0.0196 H         1 <0>         0.1018
     30 H6          1.4137   -2.6145   -5.0110 H         1 <0>         0.1805
     31 H7         -2.5190   -1.3848   -4.5009 H         1 <0>         0.1624
     32 H8         -3.3618    0.0399   -3.8436 H         1 <0>         0.0954
     33 H9         -3.8075   -2.2561   -3.0681 H         1 <0>         0.1205
     34 H10        -4.4049   -1.6330   -1.5105 H         1 <0>         0.1032
     35 H11        -5.6105   -1.0321   -4.2498 H         1 <0>         0.1359
     36 H12        -6.2855   -2.1516   -3.0426 H         1 <0>         0.1423
     37 H13        -7.3221   -0.0345   -2.8907 H         1 <0>         0.4367
     38 H14        -5.5572    1.2840   -3.8492 H         1 <0>         0.1360
     39 H15        -6.1908    1.9621   -2.3309 H         1 <0>         0.1442
     40 H16        -4.3471    0.8757   -1.0766 H         1 <0>         0.1022
     41 H17        -3.7105    1.9582   -2.3390 H         1 <0>         0.1229
     42 H18         4.5160   -1.9618   -2.2296 H         1 <0>         0.4305
     43 H19         5.9951   -1.9165   -1.4341 H         1 <0>         0.4216
     44 H20        -6.4284   -0.2902   -1.5318 H         1 <0>         0.4306
@<TRIPOS>BOND
     1    1    2 1
     2    1   25 1
     3    1   26 1
     4    1   27 1
     5    2    3 1
     6    2   28 1
     7    2   29 1
     8    3   18 1
     9    3    4 1
    10    4    9 ar
    11    4    5 ar
    12    5    6 ar
    13    5   17 1
    14    6    7 ar
    15    6   30 1
    16    7    8 ar
    17    8    9 ar
    18    8   31 1
    19    9   10 1
    20   10   11 1
    21   11   16 1
    22   11   12 1
    23   11   32 1
    24   12   13 1
    25   12   33 1
    26   12   34 1
    27   13   14 1
    28   13   35 1
    29   13   36 1
    30   14   15 1
    31   14   37 1
    32   14   44 1
    33   15   16 1
    34   15   38 1
    35   15   39 1
    36   16   40 1
    37   16   41 1
    38   17   18 2
    39   18   19 1
    40   19   23 2
    41   19   20 1
    42   20   21 2
    43   20   24 1
    44   21   22 1
    45   22   23 1
    46   24   42 1
    47   24   43 1
@<TRIPOS>MOLECULE
CHEMBL427085
   48    50     0     0     0
SMALL
USER_CHARGES

@<TRIPOS>ATOM
      1 C1         -0.0187    1.5258    0.0104 C.3       1 <0>        -0.1544
      2 C2          0.0021   -0.0041    0.0020 C.3       1 <0>        -0.0900
      3 C3          0.7421   -0.5109    1.2415 C.3       1 <0>        -0.1598
      4 C4         -1.4333   -0.5336    0.0129 C.3       1 <0>        -0.1454
      5 C5         -1.4157   -2.0577   -0.1212 C.3       1 <0>        -0.0143
      6 N1         -2.7938   -2.5661   -0.1108 N.4       1 <0>        -0.3833
      7 C6         -3.4058   -2.2898    1.1944 C.3       1 <0>        -0.0134
      8 C7         -4.8669   -2.7445    1.1835 C.3       1 <0>        -0.1411
      9 C8         -4.9257   -4.2480    0.8984 C.3       1 <0>        -0.1547
     10 C9         -4.2189   -4.5338   -0.4298 C.3       1 <0>         0.1379
     11 C10        -2.7819   -4.0127   -0.3591 C.3       1 <0>        -0.0136
     12 N2         -4.9309   -3.8590   -1.5179 N.pl3     1 <0>        -0.7588
     13 C11        -6.0301   -4.4776   -2.1243 C.ar      1 <0>         0.1598
     14 C12        -6.4485   -5.7347   -1.6860 C.ar      1 <0>        -0.1271
     15 C13        -7.5178   -6.3552   -2.2644 C.ar      1 <0>        -0.0938
     16 C14        -8.2063   -5.7355   -3.3045 C.ar      1 <0>         0.0958
     17 C15        -7.7932   -4.4672   -3.7544 C.ar      1 <0>        -0.1365
     18 C16        -6.6985   -3.8387   -3.1494 C.ar      1 <0>        -0.1107
     19 C17        -8.7028   -4.0980   -4.8343 C.2       1 <0>         0.0656
     20 N3         -9.5571   -5.0695   -4.9854 N.2       1 <0>        -0.2339
     21 N4         -9.2891   -6.0917   -4.0691 N.pl3     1 <0>        -0.5071
     22 H1         -9.7880   -6.9195   -3.9875 H         1 <0>         0.4429
     23 H2          1.0039    1.9031    0.0027 H         1 <0>         0.0675
     24 H3         -0.5459    1.8868   -0.8726 H         1 <0>         0.0600
     25 H4         -0.5289    1.8773    0.9072 H         1 <0>         0.0599
     26 H5          0.5123   -0.3556   -0.8948 H         1 <0>         0.0811
     27 H6          0.2319   -0.1594    2.1383 H         1 <0>         0.0612
     28 H7          0.7568   -1.6008    1.2356 H         1 <0>         0.0535
     29 H8          1.7647   -0.1336    1.2338 H         1 <0>         0.0687
     30 H9         -1.9156   -0.2570    0.9504 H         1 <0>         0.0882
     31 H10        -1.9862   -0.1019   -0.8214 H         1 <0>         0.0869
     32 H11        -0.9334   -2.3344   -1.0587 H         1 <0>         0.1316
     33 H12        -0.8628   -2.4894    0.7131 H         1 <0>         0.1333
     34 H13        -2.8637   -2.8294    1.9710 H         1 <0>         0.1307
     35 H14        -3.3603   -1.2198    1.3973 H         1 <0>         0.1322
     36 H15        -5.3190   -2.5402    2.1540 H         1 <0>         0.1119
     37 H16        -5.4101   -2.2054    0.4074 H         1 <0>         0.0885
     38 H17        -4.4267   -4.7910    1.7010 H         1 <0>         0.0893
     39 H18        -5.9662   -4.5663    0.8334 H         1 <0>         0.0986
     40 H19        -4.2079   -5.6083   -0.6124 H         1 <0>         0.1224
     41 H20        -2.2758   -4.2148   -1.3031 H         1 <0>         0.1368
     42 H21        -2.2531   -4.5156    0.4506 H         1 <0>         0.1425
     43 H22        -4.6405   -2.9835   -1.8181 H         1 <0>         0.3877
     44 H23        -5.9200   -6.2223   -0.8802 H         1 <0>         0.1291
     45 H24        -7.8303   -7.3282   -1.9152 H         1 <0>         0.1317
     46 H25        -6.3769   -2.8638   -3.4846 H         1 <0>         0.1271
     47 H26        -8.6730   -3.1822   -5.4061 H         1 <0>         0.1987
     48 H27        -3.3264   -2.1062   -0.8339 H         1 <0>         0.4166
@<TRIPOS>BOND
     1    1    2 1
     2    1   23 1
     3    1   24 1
     4    1   25 1
     5    2    3 1
     6    2    4 1
     7    2   26 1
     8    3   27 1
     9    3   28 1
    10    3   29 1
    11    4    5 1
    12    4   30 1
    13    4   31 1
    14    5    6 1
    15    5   32 1
    16    5   33 1
    17    6   11 1
    18    6    7 1
    19    6   48 1
    20    7    8 1
    21    7   34 1
    22    7   35 1
    23    8    9 1
    24    8   36 1
    25    8   37 1
    26    9   10 1
    27    9   38 1
    28    9   39 1
    29   10   11 1
    30   10   12 1
    31   10   40 1
    32   11   41 1
    33   11   42 1
    34   12   13 1
    35   12   43 1
    36   13   18 ar
    37   13   14 ar
    38   14   15 ar
    39   14   44 1
    40   15   16 ar
    41   15   45 1
    42   16   21 1
    43   16   17 ar
    44   17   18 ar
    45   17   19 1
    46   18   46 1
    47   19   20 2
    48   19   47 1
    49   20   21 1
    50   21   22 1
@<TRIPOS>MOLECULE
CHEMBL427085__1
   48    50     0     0     0
SMALL
USER_CHARGES

@<TRIPOS>ATOM
      1 C1         -0.0187    1.5258    0.0104 C.3       1 <0>        -0.1603
      2 C2          0.0021   -0.0041    0.0020 C.3       1 <0>        -0.0898
      3 C3          0.7182   -0.4975   -1.2568 C.3       1 <0>        -0.1544
      4 C4          0.7421   -0.5109    1.2415 C.3       1 <0>        -0.1453
      5 C5         -0.0416   -0.1236    2.4973 C.3       1 <0>        -0.0140
      6 N1          0.6689   -0.6103    3.6874 N.4       1 <0>        -0.3833
      7 C6          0.6958   -2.0778    3.6734 C.3       1 <0>        -0.0133
      8 C7          1.5043   -2.5883    4.8680 C.3       1 <0>        -0.1410
      9 C8          0.8521   -2.1004    6.1648 C.3       1 <0>        -0.1548
     10 C9          0.7619   -0.5720    6.1357 C.3       1 <0>         0.1370
     11 C10        -0.0192   -0.1362    4.8941 C.3       1 <0>        -0.0136
     12 N2          2.1111   -0.0031    6.0895 N.pl3     1 <0>        -0.7603
     13 C11         2.8272    0.1961    7.2748 C.ar      1 <0>         0.1631
     14 C12         2.2400   -0.1600    8.4974 C.ar      1 <0>        -0.1241
     15 C13         2.8871    0.0101    9.6761 C.ar      1 <0>        -0.0517
     16 C14         4.1876    0.5593    9.6872 C.ar      1 <0>         0.0755
     17 C15         4.8064    0.9339    8.4064 C.ar      1 <0>        -0.1737
     18 C16         4.0807    0.7262    7.2134 C.ar      1 <0>        -0.1243
     19 C17         6.0579    1.4368    8.7087 C.2       1 <0>         0.0700
     20 N3          6.2124    1.3850   10.0401 N.pl3     1 <0>        -0.4183
     21 N4          5.0644    0.8471   10.6329 N.2       1 <0>        -0.2887
     22 H1          7.0028    1.6768   10.5208 H         1 <0>         0.4481
     23 H2          1.0039    1.9031    0.0027 H         1 <0>         0.0614
     24 H3         -0.5459    1.8868   -0.8726 H         1 <0>         0.0686
     25 H4         -0.5289    1.8773    0.9072 H         1 <0>         0.0538
     26 H5         -1.0205   -0.3814    0.0098 H         1 <0>         0.0809
     27 H6          1.7408   -0.1202   -1.2645 H         1 <0>         0.0601
     28 H7          0.7330   -1.5874   -1.2628 H         1 <0>         0.0597
     29 H8          0.1910   -0.1364   -2.1398 H         1 <0>         0.0674
     30 H9          0.8346   -1.5958    1.1912 H         1 <0>         0.0881
     31 H10         1.7350   -0.0630    1.2804 H         1 <0>         0.0866
     32 H11        -0.1341    0.9613    2.5476 H         1 <0>         0.1327
     33 H12        -1.0345   -0.5716    2.4584 H         1 <0>         0.1318
     34 H13        -0.3232   -2.4600    3.7349 H         1 <0>         0.1307
     35 H14         1.1573   -2.4235    2.7484 H         1 <0>         0.1317
     36 H15         1.5216   -3.6781    4.8568 H         1 <0>         0.1115
     37 H16         2.5236   -2.2069    4.8073 H         1 <0>         0.0883
     38 H17        -0.1489   -2.5231    6.2508 H         1 <0>         0.0889
     39 H18         1.4557   -2.4138    7.0167 H         1 <0>         0.0991
     40 H19         0.2484   -0.2206    7.0307 H         1 <0>         0.1229
     41 H20        -0.0855    0.9516    4.8704 H         1 <0>         0.1362
     42 H21        -1.0229   -0.5598    4.9296 H         1 <0>         0.1423
     43 H22         2.5079    0.2355    5.2372 H         1 <0>         0.3863
     44 H23         1.2453   -0.5807    8.4999 H         1 <0>         0.1275
     45 H24         2.4099   -0.2730   10.6026 H         1 <0>         0.1357
     46 H25         4.5142    0.9891    6.2598 H         1 <0>         0.1200
     47 H26         6.7832    1.8056    7.9986 H         1 <0>         0.1885
     48 H27         1.6146   -0.2585    3.6805 H         1 <0>         0.4167
@<TRIPOS>BOND
     1    1    2 1
     2    1   23 1
     3    1   24 1
     4    1   25 1
     5    2    3 1
     6    2    4 1
     7    2   26 1
     8    3   27 1
     9    3   28 1
    10    3   29 1
    11    4    5 1
    12    4   30 1
    13    4   31 1
    14    5    6 1
    15    5   32 1
    16    5   33 1
    17    6   11 1
    18    6    7 1
    19    6   48 1
    20    7    8 1
    21    7   34 1
    22    7   35 1
    23    8    9 1
    24    8   36 1
    25    8   37 1
    26    9   10 1
    27    9   38 1
    28    9   39 1
    29   10   11 1
    30   10   12 1
    31   10   40 1
    32   11   41 1
    33   11   42 1
    34   12   13 1
    35   12   43 1
    36   13   18 ar
    37   13   14 ar
    38   14   15 ar
    39   14   44 1
    40   15   16 ar
    41   15   45 1
    42   16   17 ar
    43   16   21 2
    44   17   18 ar
    45   17   19 2
    46   18   46 1
    47   19   47 1
    48   19   20 1
    49   20   22 1
    50   20   21 1
@<TRIPOS>MOLECULE
CHEMBL427085__2
   48    50     0     0     0
SMALL
USER_CHARGES

@<TRIPOS>ATOM
      1 C1         -0.0187    1.5258    0.0104 C.3       1 <0>        -0.1544
      2 C2          0.0021   -0.0041    0.0020 C.3       1 <0>        -0.0903
      3 C3          0.7421   -0.5109    1.2415 C.3       1 <0>        -0.1599
      4 C4         -1.4333   -0.5336    0.0129 C.3       1 <0>        -0.1450
      5 C5         -1.4157   -2.0577   -0.1212 C.3       1 <0>        -0.0129
      6 N1         -2.7938   -2.5661   -0.1108 N.4       1 <0>        -0.3781
      7 C6         -3.4058   -2.2898    1.1944 C.3       1 <0>        -0.0143
      8 C7         -4.8669   -2.7445    1.1835 C.3       1 <0>        -0.1433
      9 C8         -4.9257   -4.2480    0.8984 C.3       1 <0>        -0.1576
     10 C9         -4.2189   -4.5338   -0.4298 C.3       1 <0>         0.1440
     11 C10        -2.7819   -4.0127   -0.3591 C.3       1 <0>        -0.0172
     12 N2         -4.2041   -5.9780   -0.6753 N.pl3     1 <0>        -0.7456
     13 C11        -5.3035   -6.5960   -1.2819 C.ar      1 <0>         0.1613
     14 C12        -6.4097   -5.8323   -1.6568 C.ar      1 <0>        -0.1317
     15 C13        -7.4921   -6.4157   -2.2493 C.ar      1 <0>        -0.0950
     16 C14        -7.5029   -7.7881   -2.4871 C.ar      1 <0>         0.0933
     17 C15        -6.3923   -8.5681   -2.1134 C.ar      1 <0>        -0.1346
     18 C16        -5.2859   -7.9570   -1.5116 C.ar      1 <0>        -0.1090
     19 C17        -6.7092   -9.9417   -2.4908 C.2       1 <0>         0.0667
     20 N3         -7.8944   -9.9431   -3.0310 N.2       1 <0>        -0.2347
     21 N4         -8.4159   -8.6455   -3.0484 N.pl3     1 <0>        -0.5083
     22 H1         -9.2837   -8.3923   -3.4002 H         1 <0>         0.4423
     23 H2          1.0039    1.9031    0.0027 H         1 <0>         0.0674
     24 H3         -0.5459    1.8868   -0.8726 H         1 <0>         0.0601
     25 H4         -0.5289    1.8773    0.9072 H         1 <0>         0.0600
     26 H5          0.5123   -0.3556   -0.8948 H         1 <0>         0.0811
     27 H6          0.2319   -0.1594    2.1383 H         1 <0>         0.0613
     28 H7          0.7568   -1.6008    1.2356 H         1 <0>         0.0533
     29 H8          1.7647   -0.1336    1.2338 H         1 <0>         0.0687
     30 H9         -1.9156   -0.2570    0.9504 H         1 <0>         0.0883
     31 H10        -1.9862   -0.1019   -0.8214 H         1 <0>         0.0880
     32 H11        -0.9334   -2.3344   -1.0587 H         1 <0>         0.1319
     33 H12        -0.8628   -2.4894    0.7131 H         1 <0>         0.1321
     34 H13        -2.8637   -2.8294    1.9710 H         1 <0>         0.1298
     35 H14        -3.3603   -1.2198    1.3973 H         1 <0>         0.1345
     36 H15        -5.3190   -2.5402    2.1540 H         1 <0>         0.1158
     37 H16        -5.4101   -2.2054    0.4074 H         1 <0>         0.0891
     38 H17        -4.4267   -4.7910    1.7010 H         1 <0>         0.0856
     39 H18        -5.9662   -4.5663    0.8334 H         1 <0>         0.0978
     40 H19        -4.7487   -4.0318   -1.2394 H         1 <0>         0.0972
     41 H20        -2.2758   -4.2148   -1.3031 H         1 <0>         0.1361
     42 H21        -2.2531   -4.5156    0.4506 H         1 <0>         0.1329
     43 H22        -3.4323   -6.5059   -0.4173 H         1 <0>         0.4052
     44 H23        -6.4096   -4.7676   -1.4758 H         1 <0>         0.1251
     45 H24        -8.3414   -5.8125   -2.5340 H         1 <0>         0.1302
     46 H25        -4.4273   -8.5464   -1.2254 H         1 <0>         0.1302
     47 H26        -6.0740  -10.8034   -2.3480 H         1 <0>         0.1994
     48 H27        -3.3264   -2.1062   -0.8339 H         1 <0>         0.4232
@<TRIPOS>BOND
     1    1    2 1
     2    1   23 1
     3    1   24 1
     4    1   25 1
     5    2    3 1
     6    2    4 1
     7    2   26 1
     8    3   27 1
     9    3   28 1
    10    3   29 1
    11    4    5 1
    12    4   30 1
    13    4   31 1
    14    5    6 1
    15    5   32 1
    16    5   33 1
    17    6   11 1
    18    6    7 1
    19    6   48 1
    20    7    8 1
    21    7   34 1
    22    7   35 1
    23    8    9 1
    24    8   36 1
    25    8   37 1
    26    9   10 1
    27    9   38 1
    28    9   39 1
    29   10   11 1
    30   10   12 1
    31   10   40 1
    32   11   41 1
    33   11   42 1
    34   12   13 1
    35   12   43 1
    36   13   18 ar
    37   13   14 ar
    38   14   15 ar
    39   14   44 1
    40   15   16 ar
    41   15   45 1
    42   16   21 1
    43   16   17 ar
    44   17   18 ar
    45   17   19 1
    46   18   46 1
    47   19   20 2
    48   19   47 1
    49   20   21 1
    50   21   22 1
@<TRIPOS>MOLECULE
CHEMBL427085__3
   48    50     0     0     0
SMALL
USER_CHARGES

@<TRIPOS>ATOM
      1 C1         -0.0187    1.5258    0.0104 C.3       1 <0>        -0.1605
      2 C2          0.0021   -0.0041    0.0020 C.3       1 <0>        -0.0900
      3 C3          0.7182   -0.4975   -1.2568 C.3       1 <0>        -0.1544
      4 C4          0.7421   -0.5109    1.2415 C.3       1 <0>        -0.1451
      5 C5         -0.0416   -0.1236    2.4973 C.3       1 <0>        -0.0125
      6 N1          0.6689   -0.6103    3.6874 N.4       1 <0>        -0.3783
      7 C6          0.6958   -2.0778    3.6734 C.3       1 <0>        -0.0142
      8 C7          1.5043   -2.5883    4.8680 C.3       1 <0>        -0.1436
      9 C8          0.8521   -2.1004    6.1648 C.3       1 <0>        -0.1576
     10 C9          0.7619   -0.5720    6.1357 C.3       1 <0>         0.1432
     11 C10        -0.0192   -0.1362    4.8941 C.3       1 <0>        -0.0170
     12 N2          0.0718   -0.0997    7.3386 N.pl3     1 <0>        -0.7474
     13 C11         0.7884    0.0996    8.5235 C.ar      1 <0>         0.1618
     14 C12         2.1678   -0.1525    8.5398 C.ar      1 <0>        -0.1255
     15 C13         2.9121    0.0235    9.6587 C.ar      1 <0>        -0.0538
     16 C14         2.2944    0.4722   10.8463 C.ar      1 <0>         0.0742
     17 C15         0.8477    0.7375   10.8325 C.ar      1 <0>        -0.1720
     18 C16         0.1307    0.5391    9.6326 C.ar      1 <0>        -0.1227
     19 C17         0.5147    1.1576   12.1065 C.2       1 <0>         0.0705
     20 N3          1.6336    1.1573   12.8463 N.pl3     1 <0>        -0.4186
     21 N4          2.7190    0.7369   12.0692 N.2       1 <0>        -0.2906
     22 H1          1.6832    1.4111   13.7812 H         1 <0>         0.4479
     23 H2          1.0039    1.9031    0.0027 H         1 <0>         0.0618
     24 H3         -0.5459    1.8868   -0.8726 H         1 <0>         0.0685
     25 H4         -0.5289    1.8773    0.9072 H         1 <0>         0.0537
     26 H5         -1.0205   -0.3814    0.0098 H         1 <0>         0.0806
     27 H6          1.7408   -0.1202   -1.2645 H         1 <0>         0.0604
     28 H7          0.7330   -1.5874   -1.2628 H         1 <0>         0.0597
     29 H8          0.1910   -0.1364   -2.1398 H         1 <0>         0.0673
     30 H9          0.8346   -1.5958    1.1912 H         1 <0>         0.0882
     31 H10         1.7350   -0.0630    1.2804 H         1 <0>         0.0881
     32 H11        -0.1341    0.9613    2.5476 H         1 <0>         0.1329
     33 H12        -1.0345   -0.5716    2.4584 H         1 <0>         0.1303
     34 H13        -0.3232   -2.4600    3.7349 H         1 <0>         0.1296
     35 H14         1.1573   -2.4235    2.7484 H         1 <0>         0.1342
     36 H15         1.5216   -3.6781    4.8568 H         1 <0>         0.1155
     37 H16         2.5236   -2.2069    4.8073 H         1 <0>         0.0893
     38 H17        -0.1489   -2.5231    6.2508 H         1 <0>         0.0849
     39 H18         1.4557   -2.4138    7.0167 H         1 <0>         0.0982
     40 H19         1.7657   -0.1487    6.1013 H         1 <0>         0.0974
     41 H20        -0.0855    0.9516    4.8704 H         1 <0>         0.1355
     42 H21        -1.0229   -0.5598    4.9296 H         1 <0>         0.1324
     43 H22        -0.8821    0.0750    7.3134 H         1 <0>         0.4038
     44 H23         2.6499   -0.4964    7.6367 H         1 <0>         0.1235
     45 H24         3.9728   -0.1789    9.6420 H         1 <0>         0.1344
     46 H25        -0.9315    0.7306    9.5952 H         1 <0>         0.1231
     47 H26        -0.4717    1.4371   12.4461 H         1 <0>         0.1893
     48 H27         1.6146   -0.2585    3.6805 H         1 <0>         0.4234
@<TRIPOS>BOND
     1    1    2 1
     2    1   23 1
     3    1   24 1
     4    1   25 1
     5    2    3 1
     6    2    4 1
     7    2   26 1
     8    3   27 1
     9    3   28 1
    10    3   29 1
    11    4    5 1
    12    4   30 1
    13    4   31 1
    14    5    6 1
    15    5   32 1
    16    5   33 1
    17    6   11 1
    18    6    7 1
    19    6   48 1
    20    7    8 1
    21    7   34 1
    22    7   35 1
    23    8    9 1
    24    8   36 1
    25    8   37 1
    26    9   10 1
    27    9   38 1
    28    9   39 1
    29   10   11 1
    30   10   12 1
    31   10   40 1
    32   11   41 1
    33   11   42 1
    34   12   13 1
    35   12   43 1
    36   13   18 ar
    37   13   14 ar
    38   14   15 ar
    39   14   44 1
    40   15   16 ar
    41   15   45 1
    42   16   17 ar
    43   16   21 2
    44   17   18 ar
    45   17   19 2
    46   18   46 1
    47   19   47 1
    48   19   20 1
    49   20   22 1
    50   20   21 1
@<TRIPOS>MOLECULE
CHEMBL224166
   44    47     0     0     0
SMALL
USER_CHARGES

@<TRIPOS>ATOM
      1 C1         -0.0162    1.3443    0.0094 C.2       1 <0>        -0.2001
      2 C2          1.3222    1.7843   -0.0010 C.2       1 <0>        -0.1337
      3 C3          2.1074    0.6880   -0.0144 C.2       1 <0>        -0.0812
      4 N1          1.3027   -0.4127   -0.0126 N.pl3     1 <0>        -0.5526
      5 H1          1.6056   -1.3341   -0.0207 H         1 <0>         0.4189
      6 C4          0.0021   -0.0041    0.0020 C.2       1 <0>         0.0397
      7 C5          3.6143    0.6808   -0.0292 C.3       1 <0>         0.0760
      8 N2          4.1169    0.5506    1.3449 N.4       1 <0>        -0.3846
      9 C6          3.7336    1.7373    2.1190 C.3       1 <0>        -0.0122
     10 C7          4.1842    1.5707    3.5719 C.3       1 <0>        -0.1397
     11 C8          5.7058    1.4024    3.6125 C.3       1 <0>        -0.1547
     12 C9          6.1006    0.2063    2.7416 C.3       1 <0>         0.1381
     13 C10         5.5790    0.4234    1.3196 C.3       1 <0>        -0.0147
     14 N3          5.5152   -1.0169    3.2960 N.pl3     1 <0>        -0.7588
     15 C11         6.1785   -1.7110    4.3142 C.ar      1 <0>         0.1603
     16 C12         7.3947   -1.2317    4.8029 C.ar      1 <0>        -0.1268
     17 C13         8.0578   -1.8939    5.7953 C.ar      1 <0>        -0.0933
     18 C14         7.5233   -3.0622    6.3333 C.ar      1 <0>         0.0958
     19 C15         6.2970   -3.5545    5.8483 C.ar      1 <0>        -0.1365
     20 C16         5.6239   -2.8632    4.8342 C.ar      1 <0>        -0.1115
     21 C17         6.0150   -4.7709    6.6036 C.2       1 <0>         0.0652
     22 N4          6.9935   -4.9544    7.4434 N.2       1 <0>        -0.2336
     23 N5          7.9382   -3.9315    7.3112 N.pl3     1 <0>        -0.5069
     24 H2          8.7554   -3.8498    7.8273 H         1 <0>         0.4431
     25 H3         -0.8952    1.9716    0.0252 H         1 <0>         0.1505
     26 H4          1.6577    2.8109    0.0010 H         1 <0>         0.1477
     27 H5         -0.8642   -0.6491    0.0074 H         1 <0>         0.1794
     28 H6          3.9677   -0.1597   -0.6265 H         1 <0>         0.1334
     29 H7          3.9779    1.6126   -0.4624 H         1 <0>         0.1500
     30 H8          4.2093    2.6194    1.6904 H         1 <0>         0.1314
     31 H9          2.6507    1.8576    2.0865 H         1 <0>         0.1352
     32 H10         3.9002    2.4536    4.1445 H         1 <0>         0.1120
     33 H11         3.7089    0.6890    4.0016 H         1 <0>         0.0861
     34 H12         6.1827    2.3049    3.2301 H         1 <0>         0.0903
     35 H13         6.0258    1.2269    4.6396 H         1 <0>         0.0981
     36 H14         7.1865    0.1138    2.7208 H         1 <0>         0.1232
     37 H15         5.8586   -0.4264    0.6968 H         1 <0>         0.1361
     38 H16         6.0153    1.3335    0.9080 H         1 <0>         0.1454
     39 H17         4.6678   -1.3457    2.9573 H         1 <0>         0.3863
     40 H18         7.8162   -0.3267    4.3909 H         1 <0>         0.1297
     41 H19         8.9983   -1.5117    6.1636 H         1 <0>         0.1320
     42 H20         4.6803   -3.2306    4.4586 H         1 <0>         0.1260
     43 H21         5.1490   -5.4057    6.4872 H         1 <0>         0.1984
     44 H22         3.7162   -0.2710    1.7721 H         1 <0>         0.4129
@<TRIPOS>BOND
     1    1    6 2
     2    1    2 1
     3    1   25 1
     4    2    3 2
     5    2   26 1
     6    3    4 1
     7    3    7 1
     8    4    5 1
     9    4    6 1
    10    6   27 1
    11    7    8 1
    12    7   28 1
    13    7   29 1
    14    8   13 1
    15    8    9 1
    16    8   44 1
    17    9   10 1
    18    9   30 1
    19    9   31 1
    20   10   11 1
    21   10   32 1
    22   10   33 1
    23   11   12 1
    24   11   34 1
    25   11   35 1
    26   12   13 1
    27   12   14 1
    28   12   36 1
    29   13   37 1
    30   13   38 1
    31   14   15 1
    32   14   39 1
    33   15   20 ar
    34   15   16 ar
    35   16   17 ar
    36   16   40 1
    37   17   18 ar
    38   17   41 1
    39   18   23 1
    40   18   19 ar
    41   19   20 ar
    42   19   21 1
    43   20   42 1
    44   21   22 2
    45   21   43 1
    46   22   23 1
    47   23   24 1
@<TRIPOS>MOLECULE
CHEMBL224166__1
   44    47     0     0     0
SMALL
USER_CHARGES

@<TRIPOS>ATOM
      1 C1         -0.0162    1.3443    0.0094 C.2       1 <0>        -0.2000
      2 C2          1.3222    1.7843   -0.0010 C.2       1 <0>        -0.1339
      3 C3          2.1074    0.6880   -0.0144 C.2       1 <0>        -0.0806
      4 N1          1.3027   -0.4127   -0.0126 N.pl3     1 <0>        -0.5526
      5 H1          1.6056   -1.3341   -0.0207 H         1 <0>         0.4187
      6 C4          0.0021   -0.0041    0.0020 C.2       1 <0>         0.0390
      7 C5          3.6143    0.6808   -0.0292 C.3       1 <0>         0.0759
      8 N2          4.1169    0.5506    1.3449 N.4       1 <0>        -0.3845
      9 C6          3.7336    1.7373    2.1190 C.3       1 <0>        -0.0120
     10 C7          4.1842    1.5707    3.5719 C.3       1 <0>        -0.1395
     11 C8          5.7058    1.4024    3.6125 C.3       1 <0>        -0.1548
     12 C9          6.1006    0.2063    2.7416 C.3       1 <0>         0.1372
     13 C10         5.5790    0.4234    1.3196 C.3       1 <0>        -0.0147
     14 N3          5.5152   -1.0169    3.2960 N.pl3     1 <0>        -0.7604
     15 C11         6.1784   -1.7108    4.3140 C.ar      1 <0>         0.1639
     16 C12         7.3997   -1.2176    4.7953 C.ar      1 <0>        -0.1240
     17 C13         8.0853   -1.8479    5.7799 C.ar      1 <0>        -0.0512
     18 C14         7.5672   -3.0336    6.3447 C.ar      1 <0>         0.0756
     19 C15         6.2864   -3.5535    5.8420 C.ar      1 <0>        -0.1737
     20 C16         5.6196   -2.8464    4.8179 C.ar      1 <0>        -0.1253
     21 C17         6.0223   -4.7045    6.5603 C.2       1 <0>         0.0696
     22 N4          7.0304   -4.8911    7.4252 N.pl3     1 <0>        -0.4183
     23 N5          7.9724   -3.8652    7.2881 N.2       1 <0>        -0.2883
     24 H2          7.0966   -5.6277    8.0528 H         1 <0>         0.4481
     25 H3         -0.8952    1.9716    0.0252 H         1 <0>         0.1504
     26 H4          1.6577    2.8109    0.0010 H         1 <0>         0.1478
     27 H5         -0.8642   -0.6491    0.0074 H         1 <0>         0.1792
     28 H6          3.9677   -0.1597   -0.6265 H         1 <0>         0.1332
     29 H7          3.9779    1.6126   -0.4624 H         1 <0>         0.1499
     30 H8          4.2093    2.6194    1.6904 H         1 <0>         0.1312
     31 H9          2.6507    1.8576    2.0865 H         1 <0>         0.1346
     32 H10         3.9002    2.4536    4.1445 H         1 <0>         0.1116
     33 H11         3.7089    0.6890    4.0016 H         1 <0>         0.0859
     34 H12         6.1827    2.3049    3.2301 H         1 <0>         0.0898
     35 H13         6.0258    1.2269    4.6396 H         1 <0>         0.0987
     36 H14         7.1865    0.1138    2.7208 H         1 <0>         0.1237
     37 H15         5.8586   -0.4264    0.6968 H         1 <0>         0.1358
     38 H16         6.0153    1.3335    0.9080 H         1 <0>         0.1450
     39 H17         4.6678   -1.3457    2.9573 H         1 <0>         0.3850
     40 H18         7.8049   -0.3114    4.3698 H         1 <0>         0.1281
     41 H19         9.0240   -1.4451    6.1307 H         1 <0>         0.1360
     42 H20         4.6759   -3.2051    4.4343 H         1 <0>         0.1189
     43 H21         5.1570   -5.3406    6.4458 H         1 <0>         0.1882
     44 H22         3.7162   -0.2710    1.7721 H         1 <0>         0.4128
@<TRIPOS>BOND
     1    1    6 2
     2    1    2 1
     3    1   25 1
     4    2    3 2
     5    2   26 1
     6    3    4 1
     7    3    7 1
     8    4    5 1
     9    4    6 1
    10    6   27 1
    11    7    8 1
    12    7   28 1
    13    7   29 1
    14    8   13 1
    15    8    9 1
    16    8   44 1
    17    9   10 1
    18    9   30 1
    19    9   31 1
    20   10   11 1
    21   10   32 1
    22   10   33 1
    23   11   12 1
    24   11   34 1
    25   11   35 1
    26   12   13 1
    27   12   14 1
    28   12   36 1
    29   13   37 1
    30   13   38 1
    31   14   15 1
    32   14   39 1
    33   15   20 ar
    34   15   16 ar
    35   16   17 ar
    36   16   40 1
    37   17   18 ar
    38   17   41 1
    39   18   19 ar
    40   18   23 2
    41   19   20 ar
    42   19   21 2
    43   20   42 1
    44   21   43 1
    45   21   22 1
    46   22   24 1
    47   22   23 1
@<TRIPOS>MOLECULE
CHEMBL224166__2
   44    47     0     0     0
SMALL
USER_CHARGES

@<TRIPOS>ATOM
      1 C1         -0.0162    1.3443    0.0094 C.2       1 <0>        -0.2002
      2 C2          1.3222    1.7843   -0.0010 C.2       1 <0>        -0.1339
      3 C3          2.1074    0.6880   -0.0144 C.2       1 <0>        -0.0807
      4 N1          1.3027   -0.4127   -0.0126 N.pl3     1 <0>        -0.5524
      5 H1          1.6056   -1.3341   -0.0207 H         1 <0>         0.4193
      6 C4          0.0021   -0.0041    0.0020 C.2       1 <0>         0.0397
      7 C5          3.6143    0.6808   -0.0292 C.3       1 <0>         0.0776
      8 N2          4.1169    0.5506    1.3449 N.4       1 <0>        -0.3796
      9 C6          3.7336    1.7373    2.1190 C.3       1 <0>        -0.0131
     10 C7          4.1842    1.5707    3.5719 C.3       1 <0>        -0.1419
     11 C8          5.7058    1.4024    3.6125 C.3       1 <0>        -0.1574
     12 C9          6.1006    0.2063    2.7416 C.3       1 <0>         0.1447
     13 C10         5.5790    0.4234    1.3196 C.3       1 <0>        -0.0181
     14 N3          7.5601    0.0820    2.7137 N.pl3     1 <0>        -0.7454
     15 C11         8.2229   -0.6123    3.7321 C.ar      1 <0>         0.1615
     16 C12         7.4897   -1.1899    4.7696 C.ar      1 <0>        -0.1319
     17 C13         8.1170   -1.8708    5.7725 C.ar      1 <0>        -0.0951
     18 C14         9.5041   -1.9965    5.7700 C.ar      1 <0>         0.0933
     19 C15        10.2536   -1.4183    4.7283 C.ar      1 <0>        -0.1345
     20 C16         9.5982   -0.7273    3.7024 C.ar      1 <0>        -0.1089
     21 C17        11.6527   -1.7222    5.0110 C.2       1 <0>         0.0668
     22 N4         11.6954   -2.4118    6.1151 N.2       1 <0>        -0.2346
     23 N5         10.4023   -2.6023    6.6128 N.pl3     1 <0>        -0.5084
     24 H2         10.1765   -3.0845    7.4236 H         1 <0>         0.4422
     25 H3         -0.8952    1.9716    0.0252 H         1 <0>         0.1505
     26 H4          1.6577    2.8109    0.0010 H         1 <0>         0.1477
     27 H5         -0.8642   -0.6491    0.0074 H         1 <0>         0.1793
     28 H6          3.9677   -0.1597   -0.6265 H         1 <0>         0.1338
     29 H7          3.9779    1.6126   -0.4624 H         1 <0>         0.1489
     30 H8          4.2093    2.6194    1.6904 H         1 <0>         0.1307
     31 H9          2.6507    1.8576    2.0865 H         1 <0>         0.1373
     32 H10         3.9002    2.4536    4.1445 H         1 <0>         0.1160
     33 H11         3.7089    0.6890    4.0016 H         1 <0>         0.0865
     34 H12         6.1827    2.3049    3.2301 H         1 <0>         0.0866
     35 H13         6.0258    1.2269    4.6396 H         1 <0>         0.0973
     36 H14         5.6651   -0.7038    3.1541 H         1 <0>         0.0958
     37 H15         5.8586   -0.4264    0.6968 H         1 <0>         0.1355
     38 H16         6.0153    1.3335    0.9080 H         1 <0>         0.1358
     39 H17         8.0670    0.4811    1.9893 H         1 <0>         0.4054
     40 H18         6.4138   -1.0968    4.7792 H         1 <0>         0.1248
     41 H19         7.5369   -2.3124    6.5693 H         1 <0>         0.1300
     42 H20        10.1643   -0.2840    2.8965 H         1 <0>         0.1304
     43 H21        12.5014   -1.4280    4.4114 H         1 <0>         0.1994
     44 H22         3.7162   -0.2710    1.7721 H         1 <0>         0.4191
@<TRIPOS>BOND
     1    1    6 2
     2    1    2 1
     3    1   25 1
     4    2    3 2
     5    2   26 1
     6    3    4 1
     7    3    7 1
     8    4    5 1
     9    4    6 1
    10    6   27 1
    11    7    8 1
    12    7   28 1
    13    7   29 1
    14    8   13 1
    15    8    9 1
    16    8   44 1
    17    9   10 1
    18    9   30 1
    19    9   31 1
    20   10   11 1
    21   10   32 1
    22   10   33 1
    23   11   12 1
    24   11   34 1
    25   11   35 1
    26   12   13 1
    27   12   14 1
    28   12   36 1
    29   13   37 1
    30   13   38 1
    31   14   15 1
    32   14   39 1
    33   15   20 ar
    34   15   16 ar
    35   16   17 ar
    36   16   40 1
    37   17   18 ar
    38   17   41 1
    39   18   23 1
    40   18   19 ar
    41   19   20 ar
    42   19   21 1
    43   20   42 1
    44   21   22 2
    45   21   43 1
    46   22   23 1
    47   23   24 1
@<TRIPOS>MOLECULE
CHEMBL224166__3
   44    47     0     0     0
SMALL
USER_CHARGES

@<TRIPOS>ATOM
      1 C1         -0.0162    1.3443    0.0094 C.2       1 <0>        -0.2003
      2 C2          1.3222    1.7843   -0.0010 C.2       1 <0>        -0.1342
      3 C3          2.1074    0.6880   -0.0144 C.2       1 <0>        -0.0804
      4 N1          1.3027   -0.4127   -0.0126 N.pl3     1 <0>        -0.5524
      5 H1          1.6056   -1.3341   -0.0207 H         1 <0>         0.4193
      6 C4          0.0021   -0.0041    0.0020 C.2       1 <0>         0.0396
      7 C5          3.6143    0.6808   -0.0292 C.3       1 <0>         0.0777
      8 N2          4.1169    0.5506    1.3449 N.4       1 <0>        -0.3797
      9 C6          3.7336    1.7373    2.1190 C.3       1 <0>        -0.0128
     10 C7          4.1842    1.5707    3.5719 C.3       1 <0>        -0.1421
     11 C8          5.7058    1.4024    3.6125 C.3       1 <0>        -0.1574
     12 C9          6.1006    0.2063    2.7416 C.3       1 <0>         0.1439
     13 C10         5.5790    0.4234    1.3196 C.3       1 <0>        -0.0179
     14 N3          7.5601    0.0820    2.7137 N.pl3     1 <0>        -0.7473
     15 C11         8.2227   -0.6121    3.7318 C.ar      1 <0>         0.1620
     16 C12         7.4732   -1.1874    4.7680 C.ar      1 <0>        -0.1255
     17 C13         8.0616   -1.8711    5.7795 C.ar      1 <0>        -0.0539
     18 C14         9.4658   -2.0154    5.8025 C.ar      1 <0>         0.0742
     19 C15        10.2549   -1.4131    4.7171 C.ar      1 <0>        -0.1721
     20 C16         9.5802   -0.7178    3.6900 C.ar      1 <0>        -0.1226
     21 C17        11.5787   -1.7040    4.9877 C.2       1 <0>         0.0705
     22 N4         11.6205   -2.4150    6.1244 N.pl3     1 <0>        -0.4186
     23 N5         10.3243   -2.6020    6.6178 N.2       1 <0>        -0.2906
     24 H2         12.4292   -2.7501    6.5422 H         1 <0>         0.4479
     25 H3         -0.8952    1.9716    0.0252 H         1 <0>         0.1503
     26 H4          1.6577    2.8109    0.0010 H         1 <0>         0.1476
     27 H5         -0.8642   -0.6491    0.0074 H         1 <0>         0.1793
     28 H6          3.9677   -0.1597   -0.6265 H         1 <0>         0.1336
     29 H7          3.9779    1.6126   -0.4624 H         1 <0>         0.1487
     30 H8          4.2093    2.6194    1.6904 H         1 <0>         0.1303
     31 H9          2.6507    1.8576    2.0865 H         1 <0>         0.1370
     32 H10         3.9002    2.4536    4.1445 H         1 <0>         0.1157
     33 H11         3.7089    0.6890    4.0016 H         1 <0>         0.0868
     34 H12         6.1827    2.3049    3.2301 H         1 <0>         0.0859
     35 H13         6.0258    1.2269    4.6396 H         1 <0>         0.0978
     36 H14         5.6651   -0.7038    3.1541 H         1 <0>         0.0961
     37 H15         5.8586   -0.4264    0.6968 H         1 <0>         0.1351
     38 H16         6.0153    1.3335    0.9080 H         1 <0>         0.1351
     39 H17         8.0670    0.4811    1.9893 H         1 <0>         0.4040
     40 H18         6.3983   -1.0825    4.7600 H         1 <0>         0.1233
     41 H19         7.4590   -2.3034    6.5646 H         1 <0>         0.1342
     42 H20        10.1363   -0.2700    2.8797 H         1 <0>         0.1233
     43 H21        12.4290   -1.4112    4.3896 H         1 <0>         0.1894
     44 H22         3.7162   -0.2710    1.7721 H         1 <0>         0.4193
@<TRIPOS>BOND
     1    1    6 2
     2    1    2 1
     3    1   25 1
     4    2    3 2
     5    2   26 1
     6    3    4 1
     7    3    7 1
     8    4    5 1
     9    4    6 1
    10    6   27 1
    11    7    8 1
    12    7   28 1
    13    7   29 1
    14    8   13 1
    15    8    9 1
    16    8   44 1
    17    9   10 1
    18    9   30 1
    19    9   31 1
    20   10   11 1
    21   10   32 1
    22   10   33 1
    23   11   12 1
    24   11   34 1
    25   11   35 1
    26   12   13 1
    27   12   14 1
    28   12   36 1
    29   13   37 1
    30   13   38 1
    31   14   15 1
    32   14   39 1
    33   15   20 ar
    34   15   16 ar
    35   16   17 ar
    36   16   40 1
    37   17   18 ar
    38   17   41 1
    39   18   19 ar
    40   18   23 2
    41   19   20 ar
    42   19   21 2
    43   20   42 1
    44   21   43 1
    45   21   22 1
    46   22   24 1
    47   22   23 1
@<TRIPOS>MOLECULE
CHEMBL224500
   46    49     0     0     0
SMALL
USER_CHARGES

@<TRIPOS>ATOM
      1 C1         -0.0167    1.3781    0.0096 C.ar      1 <0>        -0.0837
      2 C2          1.1709    2.0855    0.0021 C.ar      1 <0>        -0.1135
      3 C3          2.3773    1.4107   -0.0130 C.ar      1 <0>        -0.0981
      4 C4          2.3960    0.0285   -0.0201 C.ar      1 <0>        -0.1625
      5 C5          1.2084   -0.6789   -0.0117 C.ar      1 <0>        -0.0937
      6 C6          0.0021   -0.0041    0.0020 C.ar      1 <0>        -0.1128
      7 C7          3.7112   -0.7071   -0.0376 C.3       1 <0>         0.0445
      8 N1          4.1530   -0.9531    1.3416 N.4       1 <0>        -0.3825
      9 C8          4.4244    0.3290    2.0029 C.3       1 <0>        -0.0075
     10 C9          4.8069    0.0828    3.4639 C.3       1 <0>        -0.1534
     11 C10         6.0600   -0.7959    3.5167 C.3       1 <0>         0.1489
     12 C11         5.7896   -2.0995    2.7599 C.3       1 <0>        -0.1680
     13 C12         5.3707   -1.7725    1.3250 C.3       1 <0>        -0.0047
     14 N2          6.3878   -1.0985    4.9121 N.pl3     1 <0>        -0.7472
     15 C13         7.7040   -1.4118    5.2696 C.ar      1 <0>         0.1630
     16 C14         8.7027   -1.4295    4.2950 C.ar      1 <0>        -0.1335
     17 C15         9.9924   -1.7330    4.6229 C.ar      1 <0>        -0.0956
     18 C16        10.3263   -2.0300    5.9421 C.ar      1 <0>         0.0905
     19 C17         9.3271   -2.0147    6.9334 C.ar      1 <0>        -0.1332
     20 C18         8.0091   -1.6964    6.5855 C.ar      1 <0>        -0.1136
     21 C19         9.9872   -2.3624    8.1876 C.2       1 <0>         0.0658
     22 N3         11.2494   -2.5581    7.9327 N.2       1 <0>        -0.2356
     23 N4         11.4999   -2.3649    6.5702 N.pl3     1 <0>        -0.5094
     24 H1         12.3639   -2.4539    6.1386 H         1 <0>         0.4416
     25 H2         -0.9591    1.9053    0.0259 H         1 <0>         0.1361
     26 H3          1.1563    3.1654    0.0076 H         1 <0>         0.1363
     27 H4          3.3051    1.9634   -0.0196 H         1 <0>         0.1311
     28 H5          1.2231   -1.7588   -0.0176 H         1 <0>         0.1312
     29 H6         -0.9258   -0.5567    0.0082 H         1 <0>         0.1363
     30 H7          3.5884   -1.6586   -0.5549 H         1 <0>         0.1374
     31 H8          4.4573   -0.1052   -0.5563 H         1 <0>         0.1358
     32 H9          5.2450    0.8337    1.4930 H         1 <0>         0.1311
     33 H10         3.5326    0.9544    1.9617 H         1 <0>         0.1355
     34 H11         5.0097    1.0357    3.9526 H         1 <0>         0.1182
     35 H12         3.9868   -0.4218    3.9748 H         1 <0>         0.0924
     36 H13         6.8936   -0.2703    3.0510 H         1 <0>         0.0938
     37 H14         6.6949   -2.7065    2.7454 H         1 <0>         0.1155
     38 H15         4.9899   -2.6494    3.2562 H         1 <0>         0.0916
     39 H16         5.1776   -2.6984    0.7833 H         1 <0>         0.1333
     40 H17         6.1712   -1.2229    0.8296 H         1 <0>         0.1305
     41 H18         5.6925   -1.0816    5.5883 H         1 <0>         0.4040
     42 H19         8.4522   -1.2008    3.2697 H         1 <0>         0.1247
     43 H20        10.7550   -1.7433    3.8582 H         1 <0>         0.1290
     44 H21         7.2363   -1.6777    7.3398 H         1 <0>         0.1291
     45 H22         9.5136   -2.4428    9.1549 H         1 <0>         0.1988
     46 H23         3.4271   -1.4414    1.8443 H         1 <0>         0.4225
@<TRIPOS>BOND
     1    1    6 ar
     2    1    2 ar
     3    1   25 1
     4    2    3 ar
     5    2   26 1
     6    3    4 ar
     7    3   27 1
     8    4    5 ar
     9    4    7 1
    10    5    6 ar
    11    5   28 1
    12    6   29 1
    13    7    8 1
    14    7   30 1
    15    7   31 1
    16    8   13 1
    17    8    9 1
    18    8   46 1
    19    9   10 1
    20    9   32 1
    21    9   33 1
    22   10   11 1
    23   10   34 1
    24   10   35 1
    25   11   12 1
    26   11   14 1
    27   11   36 1
    28   12   13 1
    29   12   37 1
    30   12   38 1
    31   13   39 1
    32   13   40 1
    33   14   15 1
    34   14   41 1
    35   15   20 ar
    36   15   16 ar
    37   16   17 ar
    38   16   42 1
    39   17   18 ar
    40   17   43 1
    41   18   23 1
    42   18   19 ar
    43   19   20 ar
    44   19   21 1
    45   20   44 1
    46   21   22 2
    47   21   45 1
    48   22   23 1
    49   23   24 1
@<TRIPOS>MOLECULE
CHEMBL224500__1
   46    49     0     0     0
SMALL
USER_CHARGES

@<TRIPOS>ATOM
      1 C1         -0.0167    1.3781    0.0096 C.ar      1 <0>        -0.0840
      2 C2          1.1709    2.0855    0.0021 C.ar      1 <0>        -0.1136
      3 C3          2.3773    1.4107   -0.0130 C.ar      1 <0>        -0.0980
      4 C4          2.3960    0.0285   -0.0201 C.ar      1 <0>        -0.1621
      5 C5          1.2084   -0.6789   -0.0117 C.ar      1 <0>        -0.0938
      6 C6          0.0021   -0.0041    0.0020 C.ar      1 <0>        -0.1129
      7 C7          3.7112   -0.7071   -0.0376 C.3       1 <0>         0.0444
      8 N1          4.1530   -0.9531    1.3416 N.4       1 <0>        -0.3824
      9 C8          4.4244    0.3290    2.0029 C.3       1 <0>        -0.0075
     10 C9          4.8069    0.0828    3.4639 C.3       1 <0>        -0.1531
     11 C10         6.0600   -0.7959    3.5167 C.3       1 <0>         0.1481
     12 C11         5.7896   -2.0995    2.7599 C.3       1 <0>        -0.1681
     13 C12         5.3707   -1.7725    1.3250 C.3       1 <0>        -0.0049
     14 N2          6.3878   -1.0985    4.9121 N.pl3     1 <0>        -0.7492
     15 C13         7.7037   -1.4117    5.2695 C.ar      1 <0>         0.1630
     16 C14         8.6970   -1.4257    4.2797 C.ar      1 <0>        -0.1250
     17 C15         9.9877   -1.7216    4.5685 C.ar      1 <0>        -0.0556
     18 C16        10.3553   -2.0257    5.8972 C.ar      1 <0>         0.0729
     19 C17         9.3158   -2.0119    6.9378 C.ar      1 <0>        -0.1696
     20 C18         7.9906   -1.6905    6.5717 C.ar      1 <0>        -0.1287
     21 C19         9.9449   -2.3404    8.1238 C.2       1 <0>         0.0677
     22 N3         11.2447   -2.5405    7.8594 N.pl3     1 <0>        -0.4194
     23 N4         11.4892   -2.3463    6.4951 N.2       1 <0>        -0.2917
     24 H1         11.9157   -2.7834    8.5164 H         1 <0>         0.4473
     25 H2         -0.9591    1.9053    0.0259 H         1 <0>         0.1359
     26 H3          1.1563    3.1654    0.0076 H         1 <0>         0.1362
     27 H4          3.3051    1.9634   -0.0196 H         1 <0>         0.1312
     28 H5          1.2231   -1.7588   -0.0176 H         1 <0>         0.1311
     29 H6         -0.9258   -0.5567    0.0082 H         1 <0>         0.1361
     30 H7          3.5884   -1.6586   -0.5549 H         1 <0>         0.1373
     31 H8          4.4573   -0.1052   -0.5563 H         1 <0>         0.1359
     32 H9          5.2450    0.8337    1.4930 H         1 <0>         0.1311
     33 H10         3.5326    0.9544    1.9617 H         1 <0>         0.1349
     34 H11         5.0097    1.0357    3.9526 H         1 <0>         0.1178
     35 H12         3.9868   -0.4218    3.9748 H         1 <0>         0.0916
     36 H13         6.8936   -0.2703    3.0510 H         1 <0>         0.0940
     37 H14         6.6949   -2.7065    2.7454 H         1 <0>         0.1159
     38 H15         4.9899   -2.6494    3.2562 H         1 <0>         0.0909
     39 H16         5.1776   -2.6984    0.7833 H         1 <0>         0.1330
     40 H17         6.1712   -1.2229    0.8296 H         1 <0>         0.1308
     41 H18         5.6925   -1.0816    5.5883 H         1 <0>         0.4026
     42 H19         8.4261   -1.1949    3.2601 H         1 <0>         0.1233
     43 H20        10.7316   -1.7251    3.7855 H         1 <0>         0.1334
     44 H21         7.2098   -1.6696    7.3176 H         1 <0>         0.1220
     45 H22         9.4735   -2.4211    9.0921 H         1 <0>         0.1886
     46 H23         3.4271   -1.4414    1.8443 H         1 <0>         0.4223
@<TRIPOS>BOND
     1    1    6 ar
     2    1    2 ar
     3    1   25 1
     4    2    3 ar
     5    2   26 1
     6    3    4 ar
     7    3   27 1
     8    4    5 ar
     9    4    7 1
    10    5    6 ar
    11    5   28 1
    12    6   29 1
    13    7    8 1
    14    7   30 1
    15    7   31 1
    16    8   13 1
    17    8    9 1
    18    8   46 1
    19    9   10 1
    20    9   32 1
    21    9   33 1
    22   10   11 1
    23   10   34 1
    24   10   35 1
    25   11   12 1
    26   11   14 1
    27   11   36 1
    28   12   13 1
    29   12   37 1
    30   12   38 1
    31   13   39 1
    32   13   40 1
    33   14   15 1
    34   14   41 1
    35   15   20 ar
    36   15   16 ar
    37   16   17 ar
    38   16   42 1
    39   17   18 ar
    40   17   43 1
    41   18   19 ar
    42   18   23 2
    43   19   20 ar
    44   19   21 2
    45   20   44 1
    46   21   45 1
    47   21   22 1
    48   22   24 1
    49   22   23 1
@<TRIPOS>MOLECULE
CHEMBL224533
   45    48     0     0     0
SMALL
USER_CHARGES

@<TRIPOS>ATOM
      1 C1         -0.0168    1.3909    0.0097 C.ar      1 <0>        -0.1270
      2 C2          1.1468    2.1049    0.0024 C.ar      1 <0>        -0.0938
      3 C3          2.3718    1.4432   -0.0129 C.ar      1 <0>         0.0960
      4 C4          2.4029    0.0355   -0.0207 C.ar      1 <0>        -0.1365
      5 C5          1.2032   -0.6850   -0.0131 C.ar      1 <0>        -0.1102
      6 C6          0.0021   -0.0041    0.0020 C.ar      1 <0>         0.1595
      7 N1         -1.2023   -0.7168    0.0097 N.pl3     1 <0>        -0.7590
      8 C7         -2.4787    0.0020    0.0258 C.3       1 <0>         0.1381
      9 C8         -2.8515    0.3500    1.4698 C.3       1 <0>        -0.1546
     10 C9         -3.0522   -0.9457    2.2612 C.3       1 <0>        -0.1399
     11 C10        -4.1234   -1.7956    1.5744 C.3       1 <0>        -0.0155
     12 N2         -3.6963   -2.1167    0.2073 N.4       1 <0>        -0.3819
     13 C11        -3.5712   -0.8831   -0.5781 C.3       1 <0>        -0.0140
     14 C12        -4.6908   -2.9967   -0.4209 C.3       1 <0>         0.0422
     15 C13        -4.7254   -4.3158    0.3070 C.ar      1 <0>        -0.1124
     16 C14        -3.8992   -5.3606   -0.0779 C.ar      1 <0>        -0.1510
     17 C15        -3.9587   -6.5559    0.6133 C.ar      1 <0>         0.1166
     18 N3         -4.7885   -6.7085    1.6268 N.ar      1 <0>        -0.4575
     19 C16        -5.5885   -5.7368    2.0204 C.ar      1 <0>         0.1152
     20 C17        -5.5801   -4.5116    1.3811 C.ar      1 <0>        -0.1537
     21 C18         3.8119   -0.3442   -0.0367 C.2       1 <0>         0.0656
     22 N4          4.5194    0.7494   -0.0378 N.2       1 <0>        -0.2335
     23 N5          3.6776    1.8662   -0.0235 N.pl3     1 <0>        -0.5071
     24 H1          3.9697    2.7912   -0.0219 H         1 <0>         0.4430
     25 H2         -0.9627    1.9119    0.0261 H         1 <0>         0.1293
     26 H3          1.1172    3.1844    0.0082 H         1 <0>         0.1318
     27 H4          1.2168   -1.7649   -0.0194 H         1 <0>         0.1270
     28 H5         -1.1919   -1.6867    0.0044 H         1 <0>         0.3873
     29 H6         -2.3881    0.9179   -0.5582 H         1 <0>         0.1243
     30 H7         -2.0498    0.9333    1.9227 H         1 <0>         0.0993
     31 H8         -3.7749    0.9291    1.4784 H         1 <0>         0.0902
     32 H9         -2.1144   -1.5001    2.2956 H         1 <0>         0.0881
     33 H10        -3.3721   -0.7068    3.2754 H         1 <0>         0.1128
     34 H11        -4.2690   -2.7188    2.1354 H         1 <0>         0.1299
     35 H12        -5.0608   -1.2403    1.5408 H         1 <0>         0.1329
     36 H13        -4.5203   -0.3473   -0.5659 H         1 <0>         0.1451
     37 H14        -3.3090   -1.1325   -1.6063 H         1 <0>         0.1388
     38 H15        -5.6737   -2.5282   -0.3707 H         1 <0>         0.1431
     39 H16        -4.4208   -3.1640   -1.4635 H         1 <0>         0.1431
     40 H17        -3.2180   -5.2420   -0.9075 H         1 <0>         0.1460
     41 H18        -3.3185   -7.3747    0.3198 H         1 <0>         0.1703
     42 H19        -6.2550   -5.8991    2.8545 H         1 <0>         0.1700
     43 H20        -6.2341   -3.7180    1.7112 H         1 <0>         0.1459
     44 H21         4.1990   -1.3524   -0.0457 H         1 <0>         0.1987
     45 H22        -2.8044   -2.5875    0.2366 H         1 <0>         0.4176
@<TRIPOS>BOND
     1    1    6 ar
     2    1    2 ar
     3    1   25 1
     4    2    3 ar
     5    2   26 1
     6    3   23 1
     7    3    4 ar
     8    4    5 ar
     9    4   21 1
    10    5    6 ar
    11    5   27 1
    12    6    7 1
    13    7    8 1
    14    7   28 1
    15    8   13 1
    16    8    9 1
    17    8   29 1
    18    9   10 1
    19    9   30 1
    20    9   31 1
    21   10   11 1
    22   10   32 1
    23   10   33 1
    24   11   12 1
    25   11   34 1
    26   11   35 1
    27   12   13 1
    28   12   14 1
    29   12   45 1
    30   13   36 1
    31   13   37 1
    32   14   15 1
    33   14   38 1
    34   14   39 1
    35   15   20 ar
    36   15   16 ar
    37   16   17 ar
    38   16   40 1
    39   17   18 ar
    40   17   41 1
    41   18   19 ar
    42   19   20 ar
    43   19   42 1
    44   20   43 1
    45   21   22 2
    46   21   44 1
    47   22   23 1
    48   23   24 1
@<TRIPOS>MOLECULE
CHEMBL224533__1
   45    48     0     0     0
SMALL
USER_CHARGES

@<TRIPOS>ATOM
      1 C1         -0.0169    1.3981    0.0097 C.ar      1 <0>        -0.1242
      2 C2          1.1255    2.1272    0.0027 C.ar      1 <0>        -0.0514
      3 C3          2.3749    1.4697   -0.0127 C.ar      1 <0>         0.0756
      4 C4          2.3982   -0.0010   -0.0209 C.ar      1 <0>        -0.1741
      5 C5          1.1723   -0.7013   -0.0134 C.ar      1 <0>        -0.1237
      6 C6          0.0021   -0.0041    0.0020 C.ar      1 <0>         0.1627
      7 N1         -1.2096   -0.7036    0.0103 N.pl3     1 <0>        -0.7607
      8 C7         -2.4782    0.0290    0.0269 C.3       1 <0>         0.1373
      9 C8         -2.8465    0.3811    1.4710 C.3       1 <0>        -0.1547
     10 C9         -3.0609   -0.9122    2.2626 C.3       1 <0>        -0.1398
     11 C10        -4.1415   -1.7506    1.5765 C.3       1 <0>        -0.0152
     12 N2         -3.7185   -2.0765    0.2092 N.4       1 <0>        -0.3818
     13 C11        -3.5804   -0.8443   -0.5764 C.3       1 <0>        -0.0140
     14 C12        -4.7227   -2.9457   -0.4184 C.3       1 <0>         0.0420
     15 C13        -4.7712   -4.2643    0.3096 C.ar      1 <0>        -0.1119
     16 C14        -3.9565   -5.3180   -0.0755 C.ar      1 <0>        -0.1511
     17 C15        -4.0286   -6.5126    0.6158 C.ar      1 <0>         0.1163
     18 N3         -4.8595   -6.6560    1.6297 N.ar      1 <0>        -0.4579
     19 C16        -5.6488   -5.6758    2.0235 C.ar      1 <0>         0.1151
     20 C17        -5.6274   -4.4507    1.3840 C.ar      1 <0>        -0.1536
     21 C18         3.7299   -0.3711   -0.0356 C.2       1 <0>         0.0703
     22 N4          4.4689    0.7483   -0.0366 N.pl3     1 <0>        -0.4182
     23 N5          3.6337    1.8712   -0.0226 N.2       1 <0>        -0.2885
     24 H1          5.4385    0.7755   -0.0455 H         1 <0>         0.4482
     25 H2         -0.9674    1.9107    0.0262 H         1 <0>         0.1276
     26 H3          1.0805    3.2062    0.0086 H         1 <0>         0.1358
     27 H4          1.1624   -1.7812   -0.0193 H         1 <0>         0.1198
     28 H5         -1.2096   -1.6735    0.0051 H         1 <0>         0.3859
     29 H6         -2.3779    0.9437   -0.5573 H         1 <0>         0.1248
     30 H7         -2.0384    0.9557    1.9235 H         1 <0>         0.0998
     31 H8         -3.7636    0.9702    1.4800 H         1 <0>         0.0898
     32 H9         -2.1291   -1.4768    2.2967 H         1 <0>         0.0879
     33 H10        -3.3776   -0.6698    3.2770 H         1 <0>         0.1124
     34 H11        -4.2967   -2.6721    2.1376 H         1 <0>         0.1293
     35 H12        -5.0728   -1.1853    1.5431 H         1 <0>         0.1327
     36 H13        -4.5237   -0.2983   -0.5639 H         1 <0>         0.1447
     37 H14        -3.3214   -1.0967   -1.6047 H         1 <0>         0.1385
     38 H15        -5.7004   -2.4666   -0.3679 H         1 <0>         0.1431
     39 H16        -4.4550   -3.1161   -1.4612 H         1 <0>         0.1430
     40 H17        -3.2744   -5.2069   -0.9055 H         1 <0>         0.1459
     41 H18        -3.3973   -7.3382    0.3221 H         1 <0>         0.1700
     42 H19        -6.3166   -5.8307    2.8580 H         1 <0>         0.1699
     43 H20        -6.2727   -3.6501    1.7144 H         1 <0>         0.1460
     44 H21         4.1083   -1.3826   -0.0444 H         1 <0>         0.1886
     45 H22        -2.8316   -2.5569    0.2381 H         1 <0>         0.4176
@<TRIPOS>BOND
     1    1    6 ar
     2    1    2 ar
     3    1   25 1
     4    2    3 ar
     5    2   26 1
     6    3    4 ar
     7    3   23 2
     8    4    5 ar
     9    4   21 2
    10    5    6 ar
    11    5   27 1
    12    6    7 1
    13    7    8 1
    14    7   28 1
    15    8   13 1
    16    8    9 1
    17    8   29 1
    18    9   10 1
    19    9   30 1
    20    9   31 1
    21   10   11 1
    22   10   32 1
    23   10   33 1
    24   11   12 1
    25   11   34 1
    26   11   35 1
    27   12   13 1
    28   12   14 1
    29   12   45 1
    30   13   36 1
    31   13   37 1
    32   14   15 1
    33   14   38 1
    34   14   39 1
    35   15   20 ar
    36   15   16 ar
    37   16   17 ar
    38   16   40 1
    39   17   18 ar
    40   17   41 1
    41   18   19 ar
    42   19   20 ar
    43   19   42 1
    44   20   43 1
    45   21   44 1
    46   21   22 1
    47   22   24 1
    48   22   23 1
@<TRIPOS>MOLECULE
CHEMBL224533__2
   45    48     0     0     0
SMALL
USER_CHARGES

@<TRIPOS>ATOM
      1 C1         -0.0168    1.3909    0.0097 C.ar      1 <0>        -0.1318
      2 C2          1.1468    2.1049    0.0024 C.ar      1 <0>        -0.0951
      3 C3          2.3718    1.4432   -0.0129 C.ar      1 <0>         0.0936
      4 C4          2.4029    0.0355   -0.0207 C.ar      1 <0>        -0.1345
      5 C5          1.2032   -0.6850   -0.0131 C.ar      1 <0>        -0.1083
      6 C6          0.0021   -0.0041    0.0020 C.ar      1 <0>         0.1609
      7 N1         -1.2023   -0.7168    0.0097 N.pl3     1 <0>        -0.7453
      8 C7         -2.4787    0.0020    0.0258 C.3       1 <0>         0.1443
      9 C8         -2.8790    0.3654   -1.4070 C.3       1 <0>        -0.1574
     10 C9         -4.2506    1.0463   -1.3862 C.3       1 <0>        -0.1422
     11 C10        -5.2657    0.1160   -0.7188 C.3       1 <0>        -0.0163
     12 N2         -4.8402   -0.1726    0.6561 N.4       1 <0>        -0.3768
     13 C11        -3.5595   -0.8896    0.6409 C.3       1 <0>        -0.0175
     14 C12        -5.8563   -1.0021    1.3176 C.3       1 <0>         0.0438
     15 C13        -7.1357   -0.2172    1.4520 C.ar      1 <0>        -0.1120
     16 C14        -7.3759    0.5620    2.5733 C.ar      1 <0>        -0.1500
     17 C15        -8.5608    1.2679    2.6616 C.ar      1 <0>         0.1164
     18 N3         -9.4566    1.2058    1.6959 N.ar      1 <0>        -0.4578
     19 C16        -9.2619    0.4753    0.6154 C.ar      1 <0>         0.1151
     20 C17        -8.0982   -0.2528    0.4546 C.ar      1 <0>        -0.1540
     21 C18         3.8119   -0.3442   -0.0367 C.2       1 <0>         0.0668
     22 N4          4.5194    0.7494   -0.0378 N.2       1 <0>        -0.2344
     23 N5          3.6776    1.8662   -0.0235 N.pl3     1 <0>        -0.5084
     24 H1          3.9697    2.7912   -0.0219 H         1 <0>         0.4423
     25 H2         -0.9627    1.9119    0.0261 H         1 <0>         0.1250
     26 H3          1.1172    3.1844    0.0082 H         1 <0>         0.1302
     27 H4          1.2168   -1.7649   -0.0194 H         1 <0>         0.1304
     28 H5         -1.1919   -1.6867    0.0044 H         1 <0>         0.4054
     29 H6         -2.3768    0.9116    0.6177 H         1 <0>         0.0976
     30 H7         -2.1405    1.0463   -1.8302 H         1 <0>         0.0986
     31 H8         -2.9306   -0.5399   -2.0118 H         1 <0>         0.0866
     32 H9         -4.1860    1.9779   -0.8240 H         1 <0>         0.0887
     33 H10        -4.5674    1.2579   -2.4075 H         1 <0>         0.1168
     34 H11        -6.2434    0.5976   -0.7025 H         1 <0>         0.1319
     35 H12        -5.3297   -0.8151   -1.2819 H         1 <0>         0.1322
     36 H13        -3.6599   -1.7993    0.0489 H         1 <0>         0.1354
     37 H14        -3.2775   -1.1504    1.6610 H         1 <0>         0.1382
     38 H15        -6.0394   -1.8963    0.7219 H         1 <0>         0.1421
     39 H16        -5.5016   -1.2909    2.3070 H         1 <0>         0.1435
     40 H17        -6.6465    0.6164    3.3679 H         1 <0>         0.1464
     41 H18        -8.7555    1.8772    3.5318 H         1 <0>         0.1702
     42 H19       -10.0188    0.4488   -0.1545 H         1 <0>         0.1699
     43 H20        -7.9424   -0.8453   -0.4348 H         1 <0>         0.1459
     44 H21         4.1990   -1.3524   -0.0457 H         1 <0>         0.1995
     45 H22        -4.7338    0.6933    1.1629 H         1 <0>         0.4240
@<TRIPOS>BOND
     1    1    6 ar
     2    1    2 ar
     3    1   25 1
     4    2    3 ar
     5    2   26 1
     6    3   23 1
     7    3    4 ar
     8    4    5 ar
     9    4   21 1
    10    5    6 ar
    11    5   27 1
    12    6    7 1
    13    7    8 1
    14    7   28 1
    15    8   13 1
    16    8    9 1
    17    8   29 1
    18    9   10 1
    19    9   30 1
    20    9   31 1
    21   10   11 1
    22   10   32 1
    23   10   33 1
    24   11   12 1
    25   11   34 1
    26   11   35 1
    27   12   13 1
    28   12   14 1
    29   12   45 1
    30   13   36 1
    31   13   37 1
    32   14   15 1
    33   14   38 1
    34   14   39 1
    35   15   20 ar
    36   15   16 ar
    37   16   17 ar
    38   16   40 1
    39   17   18 ar
    40   17   41 1
    41   18   19 ar
    42   19   20 ar
    43   19   42 1
    44   20   43 1
    45   21   22 2
    46   21   44 1
    47   22   23 1
    48   23   24 1
@<TRIPOS>MOLECULE
CHEMBL224533__3
   45    48     0     0     0
SMALL
USER_CHARGES

@<TRIPOS>ATOM
      1 C1         -0.0169    1.3981    0.0097 C.ar      1 <0>        -0.1257
      2 C2          1.1255    2.1272    0.0027 C.ar      1 <0>        -0.0536
      3 C3          2.3749    1.4697   -0.0127 C.ar      1 <0>         0.0743
      4 C4          2.3982   -0.0010   -0.0209 C.ar      1 <0>        -0.1724
      5 C5          1.1723   -0.7013   -0.0134 C.ar      1 <0>        -0.1218
      6 C6          0.0021   -0.0041    0.0020 C.ar      1 <0>         0.1613
      7 N1         -1.2096   -0.7036    0.0103 N.pl3     1 <0>        -0.7471
      8 C7         -2.4782    0.0290    0.0269 C.3       1 <0>         0.1435
      9 C8         -2.8752    0.3965   -1.4058 C.3       1 <0>        -0.1574
     10 C9         -4.2393    1.0922   -1.3845 C.3       1 <0>        -0.1424
     11 C10        -5.2641    0.1729   -0.7164 C.3       1 <0>        -0.0162
     12 N2         -4.8411   -0.1201    0.6582 N.4       1 <0>        -0.3768
     13 C11        -3.5682   -0.8509    0.6426 C.3       1 <0>        -0.0172
     14 C12        -5.8658   -0.9385    1.3203 C.3       1 <0>         0.0438
     15 C13        -7.1366   -0.1399    1.4552 C.ar      1 <0>        -0.1118
     16 C14        -7.3679    0.6421    2.5765 C.ar      1 <0>        -0.1500
     17 C15        -8.5451    1.3607    2.6653 C.ar      1 <0>         0.1164
     18 N3         -9.4419    1.3082    1.7000 N.ar      1 <0>        -0.4579
     19 C16        -9.2556    0.5754    0.6195 C.ar      1 <0>         0.1149
     20 C17        -8.0999   -0.1651    0.4582 C.ar      1 <0>        -0.1540
     21 C18         3.7299   -0.3711   -0.0356 C.2       1 <0>         0.0708
     22 N4          4.4689    0.7483   -0.0366 N.pl3     1 <0>        -0.4184
     23 N5          3.6337    1.8712   -0.0226 N.2       1 <0>        -0.2904
     24 H1          5.4385    0.7755   -0.0455 H         1 <0>         0.4480
     25 H2         -0.9674    1.9107    0.0262 H         1 <0>         0.1234
     26 H3          1.0805    3.2062    0.0086 H         1 <0>         0.1344
     27 H4          1.1624   -1.7812   -0.0193 H         1 <0>         0.1232
     28 H5         -1.2096   -1.6735    0.0051 H         1 <0>         0.4040
     29 H6         -2.3662    0.9374    0.6187 H         1 <0>         0.0979
     30 H7         -2.1295    1.0693   -1.8294 H         1 <0>         0.0990
     31 H8         -2.9368   -0.5083   -2.0104 H         1 <0>         0.0859
     32 H9         -4.1644    2.0231   -0.8224 H         1 <0>         0.0889
     33 H10        -4.5542    1.3071   -2.4056 H         1 <0>         0.1165
     34 H11        -6.2365    0.6651   -0.6998 H         1 <0>         0.1316
     35 H12        -5.3384   -0.7575   -1.2794 H         1 <0>         0.1317
     36 H13        -3.6787   -1.7594    0.0507 H         1 <0>         0.1347
     37 H14        -3.2887   -1.1146    1.6626 H         1 <0>         0.1378
     38 H15        -6.0588   -1.8308    0.7248 H         1 <0>         0.1418
     39 H16        -5.5138   -1.2310    2.3096 H         1 <0>         0.1433
     40 H17        -6.6376    0.6887    3.3708 H         1 <0>         0.1465
     41 H18        -8.7328    1.9722    3.5355 H         1 <0>         0.1702
     42 H19       -10.0130    0.5571   -0.1501 H         1 <0>         0.1698
     43 H20        -7.9509   -0.7594   -0.4312 H         1 <0>         0.1458
     44 H21         4.1083   -1.3826   -0.0444 H         1 <0>         0.1894
     45 H22        -4.7251    0.7447    1.1649 H         1 <0>         0.4242
@<TRIPOS>BOND
     1    1    6 ar
     2    1    2 ar
     3    1   25 1
     4    2    3 ar
     5    2   26 1
     6    3    4 ar
     7    3   23 2
     8    4    5 ar
     9    4   21 2
    10    5    6 ar
    11    5   27 1
    12    6    7 1
    13    7    8 1
    14    7   28 1
    15    8   13 1
    16    8    9 1
    17    8   29 1
    18    9   10 1
    19    9   30 1
    20    9   31 1
    21   10   11 1
    22   10   32 1
    23   10   33 1
    24   11   12 1
    25   11   34 1
    26   11   35 1
    27   12   13 1
    28   12   14 1
    29   12   45 1
    30   13   36 1
    31   13   37 1
    32   14   15 1
    33   14   38 1
    34   14   39 1
    35   15   20 ar
    36   15   16 ar
    37   16   17 ar
    38   16   40 1
    39   17   18 ar
    40   17   41 1
    41   18   19 ar
    42   19   20 ar
    43   19   42 1
    44   20   43 1
    45   21   44 1
    46   21   22 1
    47   22   24 1
    48   22   23 1
@<TRIPOS>MOLECULE
CHEMBL224746
   45    48     0     0     0
SMALL
USER_CHARGES

@<TRIPOS>ATOM
      1 C1         -0.0167    1.3776    0.0096 C.ar      1 <0>        -0.1658
      2 C2          1.1849    2.0698    0.0019 C.ar      1 <0>        -0.0489
      3 C3          2.3651    1.3426   -0.0133 C.ar      1 <0>        -0.2201
      4 C4          2.3054   -0.0383   -0.0202 C.ar      1 <0>         0.1322
      5 N1          1.1443   -0.6632   -0.0129 N.ar      1 <0>        -0.4740
      6 C5          0.0021   -0.0041    0.0020 C.ar      1 <0>         0.1388
      7 C6          3.6964    2.0488   -0.0227 C.3       1 <0>         0.0493
      8 N2          4.1424    2.2713    1.3591 N.4       1 <0>        -0.3831
      9 C7          3.2123    3.1871    2.0305 C.3       1 <0>        -0.0139
     10 C8          3.6265    3.3587    3.4936 C.3       1 <0>        -0.1401
     11 C9          5.0443    3.9344    3.5529 C.3       1 <0>        -0.1545
     12 C10         5.9930    3.0088    2.7859 C.3       1 <0>         0.1380
     13 C11         5.4912    2.8502    1.3491 C.3       1 <0>        -0.0140
     14 N3          6.0310    1.6977    3.4384 N.pl3     1 <0>        -0.7589
     15 C12         6.8996    1.4757    4.5130 C.ar      1 <0>         0.1597
     16 C13         7.7240    2.5075    4.9639 C.ar      1 <0>        -0.1269
     17 C14         8.5785    2.3114    6.0101 C.ar      1 <0>        -0.0939
     18 C15         8.6361    1.0715    6.6418 C.ar      1 <0>         0.0959
     19 C16         7.8087    0.0237    6.1956 C.ar      1 <0>        -0.1365
     20 C17         6.9326    0.2390    5.1253 C.ar      1 <0>        -0.1102
     21 C18         8.1022   -1.1234    7.0486 C.2       1 <0>         0.0657
     22 N4          9.0152   -0.7607    7.9039 N.2       1 <0>        -0.2339
     23 N5          9.3702    0.5751    7.6900 N.pl3     1 <0>        -0.5072
     24 H1         10.0297    1.0709    8.2001 H         1 <0>         0.4429
     25 H2         -0.9552    1.9117    0.0259 H         1 <0>         0.1514
     26 H3          1.2009    3.1496    0.0072 H         1 <0>         0.1445
     27 H4          3.2203   -0.6121   -0.0320 H         1 <0>         0.1625
     28 H5         -0.9294   -0.5505    0.0083 H         1 <0>         0.1713
     29 H6          4.4293    1.4355   -0.5468 H         1 <0>         0.1421
     30 H7          3.5953    3.0079   -0.5308 H         1 <0>         0.1402
     31 H8          3.2333    4.1559    1.5314 H         1 <0>         0.1318
     32 H9          2.2033    2.7775    1.9846 H         1 <0>         0.1278
     33 H10         2.9357    4.0403    3.9898 H         1 <0>         0.1118
     34 H11         3.6056    2.3904    3.9937 H         1 <0>         0.0881
     35 H12         5.0547    4.9250    3.0982 H         1 <0>         0.0899
     36 H13         5.3655    4.0057    4.5921 H         1 <0>         0.0990
     37 H14         6.9939    3.4404    2.7764 H         1 <0>         0.1237
     38 H15         6.1646    2.1919    0.8001 H         1 <0>         0.1391
     39 H16         5.4636    3.8262    0.8645 H         1 <0>         0.1444
     40 H17         5.4541    0.9834    3.1256 H         1 <0>         0.3876
     41 H18         7.6858    3.4719    4.4794 H         1 <0>         0.1292
     42 H19         9.2110    3.1188    6.3483 H         1 <0>         0.1316
     43 H20         6.2907   -0.5574    4.7786 H         1 <0>         0.1272
     44 H21         7.6438   -2.0991    6.9828 H         1 <0>         0.1987
     45 H22         4.1590    1.3910    1.8520 H         1 <0>         0.4172
@<TRIPOS>BOND
     1    1    6 ar
     2    1    2 ar
     3    1   25 1
     4    2    3 ar
     5    2   26 1
     6    3    4 ar
     7    3    7 1
     8    4    5 ar
     9    4   27 1
    10    5    6 ar
    11    6   28 1
    12    7    8 1
    13    7   29 1
    14    7   30 1
    15    8   13 1
    16    8    9 1
    17    8   45 1
    18    9   10 1
    19    9   31 1
    20    9   32 1
    21   10   11 1
    22   10   33 1
    23   10   34 1
    24   11   12 1
    25   11   35 1
    26   11   36 1
    27   12   13 1
    28   12   14 1
    29   12   37 1
    30   13   38 1
    31   13   39 1
    32   14   15 1
    33   14   40 1
    34   15   20 ar
    35   15   16 ar
    36   16   17 ar
    37   16   41 1
    38   17   18 ar
    39   17   42 1
    40   18   23 1
    41   18   19 ar
    42   19   20 ar
    43   19   21 1
    44   20   43 1
    45   21   22 2
    46   21   44 1
    47   22   23 1
    48   23   24 1
@<TRIPOS>MOLECULE
CHEMBL224746__1
   45    48     0     0     0
SMALL
USER_CHARGES

@<TRIPOS>ATOM
      1 C1         -0.0167    1.3776    0.0096 C.ar      1 <0>        -0.1658
      2 C2          1.1849    2.0698    0.0019 C.ar      1 <0>        -0.0488
      3 C3          2.3651    1.3426   -0.0133 C.ar      1 <0>        -0.2196
      4 C4          2.3054   -0.0383   -0.0202 C.ar      1 <0>         0.1320
      5 N1          1.1443   -0.6632   -0.0129 N.ar      1 <0>        -0.4743
      6 C5          0.0021   -0.0041    0.0020 C.ar      1 <0>         0.1384
      7 C6          3.6964    2.0488   -0.0227 C.3       1 <0>         0.0492
      8 N2          4.1424    2.2713    1.3591 N.4       1 <0>        -0.3829
      9 C7          3.2123    3.1871    2.0305 C.3       1 <0>        -0.0138
     10 C8          3.6265    3.3587    3.4936 C.3       1 <0>        -0.1399
     11 C9          5.0443    3.9344    3.5529 C.3       1 <0>        -0.1546
     12 C10         5.9930    3.0088    2.7859 C.3       1 <0>         0.1372
     13 C11         5.4912    2.8502    1.3491 C.3       1 <0>        -0.0139
     14 N3          6.0310    1.6977    3.4384 N.pl3     1 <0>        -0.7606
     15 C12         6.8994    1.4758    4.5127 C.ar      1 <0>         0.1628
     16 C13         7.7220    2.5217    4.9552 C.ar      1 <0>        -0.1239
     17 C14         8.5816    2.3638    5.9910 C.ar      1 <0>        -0.0519
     18 C15         8.6608    1.1182    6.6509 C.ar      1 <0>         0.0756
     19 C16         7.7992    0.0191    6.1892 C.ar      1 <0>        -0.1739
     20 C17         6.9216    0.2505    5.1076 C.ar      1 <0>        -0.1237
     21 C18         8.0791   -1.0647    7.0000 C.2       1 <0>         0.0703
     22 N4          9.0186   -0.6889    7.8806 N.pl3     1 <0>        -0.4183
     23 N5          9.3701    0.6479    7.6616 N.2       1 <0>        -0.2889
     24 H1          9.3978   -1.2591    8.5676 H         1 <0>         0.4481
     25 H2         -0.9552    1.9117    0.0259 H         1 <0>         0.1514
     26 H3          1.2009    3.1496    0.0072 H         1 <0>         0.1446
     27 H4          3.2203   -0.6121   -0.0320 H         1 <0>         0.1624
     28 H5         -0.9294   -0.5505    0.0083 H         1 <0>         0.1711
     29 H6          4.4293    1.4355   -0.5468 H         1 <0>         0.1419
     30 H7          3.5953    3.0079   -0.5308 H         1 <0>         0.1401
     31 H8          3.2333    4.1559    1.5314 H         1 <0>         0.1317
     32 H9          2.2033    2.7775    1.9846 H         1 <0>         0.1272
     33 H10         2.9357    4.0403    3.9898 H         1 <0>         0.1114
     34 H11         3.6056    2.3904    3.9937 H         1 <0>         0.0879
     35 H12         5.0547    4.9250    3.0982 H         1 <0>         0.0894
     36 H13         5.3655    4.0057    4.5921 H         1 <0>         0.0995
     37 H14         6.9939    3.4404    2.7764 H         1 <0>         0.1242
     38 H15         6.1646    2.1919    0.8001 H         1 <0>         0.1387
     39 H16         5.4636    3.8262    0.8645 H         1 <0>         0.1440
     40 H17         5.4541    0.9834    3.1256 H         1 <0>         0.3863
     41 H18         7.6695    3.4785    4.4570 H         1 <0>         0.1276
     42 H19         9.2036    3.1871    6.3101 H         1 <0>         0.1356
     43 H20         6.2758   -0.5389    4.7522 H         1 <0>         0.1201
     44 H21         7.6220   -2.0411    6.9361 H         1 <0>         0.1886
     45 H22         4.1590    1.3910    1.8520 H         1 <0>         0.4171
@<TRIPOS>BOND
     1    1    6 ar
     2    1    2 ar
     3    1   25 1
     4    2    3 ar
     5    2   26 1
     6    3    4 ar
     7    3    7 1
     8    4    5 ar
     9    4   27 1
    10    5    6 ar
    11    6   28 1
    12    7    8 1
    13    7   29 1
    14    7   30 1
    15    8   13 1
    16    8    9 1
    17    8   45 1
    18    9   10 1
    19    9   31 1
    20    9   32 1
    21   10   11 1
    22   10   33 1
    23   10   34 1
    24   11   12 1
    25   11   35 1
    26   11   36 1
    27   12   13 1
    28   12   14 1
    29   12   37 1
    30   13   38 1
    31   13   39 1
    32   14   15 1
    33   14   40 1
    34   15   20 ar
    35   15   16 ar
    36   16   17 ar
    37   16   41 1
    38   17   18 ar
    39   17   42 1
    40   18   19 ar
    41   18   23 2
    42   19   20 ar
    43   19   21 2
    44   20   43 1
    45   21   44 1
    46   21   22 1
    47   22   24 1
    48   22   23 1
@<TRIPOS>MOLECULE
CHEMBL224746__2
   45    48     0     0     0
SMALL
USER_CHARGES

@<TRIPOS>ATOM
      1 C1         -0.0167    1.3776    0.0096 C.ar      1 <0>        -0.1660
      2 C2          1.1849    2.0698    0.0019 C.ar      1 <0>        -0.0490
      3 C3          2.3651    1.3426   -0.0133 C.ar      1 <0>        -0.2198
      4 C4          2.3054   -0.0383   -0.0202 C.ar      1 <0>         0.1332
      5 N1          1.1443   -0.6632   -0.0129 N.ar      1 <0>        -0.4747
      6 C5          0.0021   -0.0041    0.0020 C.ar      1 <0>         0.1391
      7 C6          3.6964    2.0488   -0.0227 C.3       1 <0>         0.0510
      8 N2          4.1424    2.2713    1.3591 N.4       1 <0>        -0.3779
      9 C7          3.2123    3.1871    2.0305 C.3       1 <0>        -0.0149
     10 C8          3.6265    3.3587    3.4936 C.3       1 <0>        -0.1423
     11 C9          5.0443    3.9344    3.5529 C.3       1 <0>        -0.1572
     12 C10         5.9930    3.0088    2.7859 C.3       1 <0>         0.1440
     13 C11         5.4912    2.8502    1.3491 C.3       1 <0>        -0.0174
     14 N3          7.3382    3.5889    2.7731 N.pl3     1 <0>        -0.7452
     15 C12         8.2065    3.3665    3.8479 C.ar      1 <0>         0.1612
     16 C13         7.7894    2.5868    4.9275 C.ar      1 <0>        -0.1316
     17 C14         8.6207    2.3581    5.9856 C.ar      1 <0>        -0.0950
     18 C15         9.9018    2.9045    5.9981 C.ar      1 <0>         0.0935
     19 C16        10.3332    3.6922    4.9142 C.ar      1 <0>        -0.1347
     20 C17         9.4733    3.9147    3.8323 C.ar      1 <0>        -0.1086
     21 C18        11.6968    4.1083    5.2257 C.2       1 <0>         0.0667
     22 N4         12.0131    3.6025    6.3836 N.2       1 <0>        -0.2347
     23 N5         10.9430    2.8587    6.8912 N.pl3     1 <0>        -0.5083
     24 H1         10.9374    2.3867    7.7386 H         1 <0>         0.4423
     25 H2         -0.9552    1.9117    0.0259 H         1 <0>         0.1514
     26 H3          1.2009    3.1496    0.0072 H         1 <0>         0.1445
     27 H4          3.2203   -0.6121   -0.0320 H         1 <0>         0.1630
     28 H5         -0.9294   -0.5505    0.0083 H         1 <0>         0.1712
     29 H6          4.4293    1.4355   -0.5468 H         1 <0>         0.1425
     30 H7          3.5953    3.0079   -0.5308 H         1 <0>         0.1390
     31 H8          3.2333    4.1559    1.5314 H         1 <0>         0.1311
     32 H9          2.2033    2.7775    1.9846 H         1 <0>         0.1299
     33 H10         2.9357    4.0403    3.9898 H         1 <0>         0.1159
     34 H11         3.6056    2.3904    3.9937 H         1 <0>         0.0886
     35 H12         5.0547    4.9250    3.0982 H         1 <0>         0.0862
     36 H13         5.3655    4.0057    4.5921 H         1 <0>         0.0982
     37 H14         6.0213    2.0333    3.2714 H         1 <0>         0.0976
     38 H15         6.1646    2.1919    0.8001 H         1 <0>         0.1385
     39 H16         5.4636    3.8262    0.8645 H         1 <0>         0.1348
     40 H17         7.6271    4.1273    2.0197 H         1 <0>         0.4054
     41 H18         6.7974    2.1597    4.9259 H         1 <0>         0.1251
     42 H19         8.2844    1.7530    6.8146 H         1 <0>         0.1302
     43 H20         9.7968    4.5141    2.9941 H         1 <0>         0.1303
     44 H21        12.3309    4.7254    4.6064 H         1 <0>         0.1994
     45 H22         4.1590    1.3910    1.8520 H         1 <0>         0.4237
@<TRIPOS>BOND
     1    1    6 ar
     2    1    2 ar
     3    1   25 1
     4    2    3 ar
     5    2   26 1
     6    3    4 ar
     7    3    7 1
     8    4    5 ar
     9    4   27 1
    10    5    6 ar
    11    6   28 1
    12    7    8 1
    13    7   29 1
    14    7   30 1
    15    8   13 1
    16    8    9 1
    17    8   45 1
    18    9   10 1
    19    9   31 1
    20    9   32 1
    21   10   11 1
    22   10   33 1
    23   10   34 1
    24   11   12 1
    25   11   35 1
    26   11   36 1
    27   12   13 1
    28   12   14 1
    29   12   37 1
    30   13   38 1
    31   13   39 1
    32   14   15 1
    33   14   40 1
    34   15   20 ar
    35   15   16 ar
    36   16   17 ar
    37   16   41 1
    38   17   18 ar
    39   17   42 1
    40   18   23 1
    41   18   19 ar
    42   19   20 ar
    43   19   21 1
    44   20   43 1
    45   21   22 2
    46   21   44 1
    47   22   23 1
    48   23   24 1
@<TRIPOS>MOLECULE
CHEMBL224746__3
   45    48     0     0     0
SMALL
USER_CHARGES

@<TRIPOS>ATOM
      1 C1         -0.0167    1.3776    0.0096 C.ar      1 <0>        -0.1661
      2 C2          1.1849    2.0698    0.0019 C.ar      1 <0>        -0.0491
      3 C3          2.3651    1.3426   -0.0133 C.ar      1 <0>        -0.2195
      4 C4          2.3054   -0.0383   -0.0202 C.ar      1 <0>         0.1332
      5 N1          1.1443   -0.6632   -0.0129 N.ar      1 <0>        -0.4747
      6 C5          0.0021   -0.0041    0.0020 C.ar      1 <0>         0.1389
      7 C6          3.6964    2.0488   -0.0227 C.3       1 <0>         0.0511
      8 N2          4.1424    2.2713    1.3591 N.4       1 <0>        -0.3780
      9 C7          3.2123    3.1871    2.0305 C.3       1 <0>        -0.0146
     10 C8          3.6265    3.3587    3.4936 C.3       1 <0>        -0.1425
     11 C9          5.0443    3.9344    3.5529 C.3       1 <0>        -0.1572
     12 C10         5.9930    3.0088    2.7859 C.3       1 <0>         0.1432
     13 C11         5.4912    2.8502    1.3491 C.3       1 <0>        -0.0172
     14 N3          7.3382    3.5889    2.7731 N.pl3     1 <0>        -0.7471
     15 C12         8.2062    3.3665    3.8476 C.ar      1 <0>         0.1617
     16 C13         7.7737    2.5810    4.9257 C.ar      1 <0>        -0.1255
     17 C14         8.5717    2.3321    5.9925 C.ar      1 <0>        -0.0537
     18 C15         9.8756    2.8722    6.0319 C.ar      1 <0>         0.0742
     19 C16        10.3323    3.6966    4.9026 C.ar      1 <0>        -0.1721
     20 C17         9.4535    3.9136    3.8191 C.ar      1 <0>        -0.1223
     21 C18        11.6240    4.0876    5.2008 C.2       1 <0>         0.0705
     22 N4         11.9482    3.5649    6.3928 N.pl3     1 <0>        -0.4186
     23 N5         10.8740    2.8223    6.8960 N.2       1 <0>        -0.2905
     24 H1         12.8009    3.6838    6.8397 H         1 <0>         0.4479
     25 H2         -0.9552    1.9117    0.0259 H         1 <0>         0.1513
     26 H3          1.2009    3.1496    0.0072 H         1 <0>         0.1444
     27 H4          3.2203   -0.6121   -0.0320 H         1 <0>         0.1631
     28 H5         -0.9294   -0.5505    0.0083 H         1 <0>         0.1711
     29 H6          4.4293    1.4355   -0.5468 H         1 <0>         0.1423
     30 H7          3.5953    3.0079   -0.5308 H         1 <0>         0.1387
     31 H8          3.2333    4.1559    1.5314 H         1 <0>         0.1307
     32 H9          2.2033    2.7775    1.9846 H         1 <0>         0.1296
     33 H10         2.9357    4.0403    3.9898 H         1 <0>         0.1155
     34 H11         3.6056    2.3904    3.9937 H         1 <0>         0.0889
     35 H12         5.0547    4.9250    3.0982 H         1 <0>         0.0855
     36 H13         5.3655    4.0057    4.5921 H         1 <0>         0.0987
     37 H14         6.0213    2.0333    3.2714 H         1 <0>         0.0979
     38 H15         6.1646    2.1919    0.8001 H         1 <0>         0.1380
     39 H16         5.4636    3.8262    0.8645 H         1 <0>         0.1341
     40 H17         7.6271    4.1273    2.0197 H         1 <0>         0.4039
     41 H18         6.7779    2.1635    4.9056 H         1 <0>         0.1235
     42 H19         8.2118    1.7237    6.8090 H         1 <0>         0.1344
     43 H20         9.7663    4.5119    2.9761 H         1 <0>         0.1232
     44 H21        12.2600    4.7043    4.5830 H         1 <0>         0.1893
     45 H22         4.1590    1.3910    1.8520 H         1 <0>         0.4238
@<TRIPOS>BOND
     1    1    6 ar
     2    1    2 ar
     3    1   25 1
     4    2    3 ar
     5    2   26 1
     6    3    4 ar
     7    3    7 1
     8    4    5 ar
     9    4   27 1
    10    5    6 ar
    11    6   28 1
    12    7    8 1
    13    7   29 1
    14    7   30 1
    15    8   13 1
    16    8    9 1
    17    8   45 1
    18    9   10 1
    19    9   31 1
    20    9   32 1
    21   10   11 1
    22   10   33 1
    23   10   34 1
    24   11   12 1
    25   11   35 1
    26   11   36 1
    27   12   13 1
    28   12   14 1
    29   12   37 1
    30   13   38 1
    31   13   39 1
    32   14   15 1
    33   14   40 1
    34   15   20 ar
    35   15   16 ar
    36   16   17 ar
    37   16   41 1
    38   17   18 ar
    39   17   42 1
    40   18   19 ar
    41   18   23 2
    42   19   20 ar
    43   19   21 2
    44   20   43 1
    45   21   44 1
    46   21   22 1
    47   22   24 1
    48   22   23 1
@<TRIPOS>MOLECULE
CHEMBL224696
   45    48     0     0     0
SMALL
USER_CHARGES

@<TRIPOS>ATOM
      1 C1         -0.0167    1.3821    0.0096 C.ar      1 <0>        -0.0674
      2 C2          1.1937    2.0586    0.0017 C.ar      1 <0>        -0.1348
      3 C3          2.3701    1.3338   -0.0134 C.ar      1 <0>         0.1115
      4 N1          2.3500    0.0151   -0.0207 N.ar      1 <0>        -0.4668
      5 C4          1.2181   -0.6611   -0.0136 C.ar      1 <0>         0.0525
      6 C5          0.0021   -0.0041    0.0020 C.ar      1 <0>        -0.1461
      7 C6          1.2505   -2.1677   -0.0230 C.3       1 <0>         0.0556
      8 N2          1.3680   -2.6463   -1.4069 N.4       1 <0>        -0.3810
      9 C7          0.1635   -2.2708   -2.1568 C.3       1 <0>        -0.0144
     10 C8          0.3153   -2.6956   -3.6190 C.3       1 <0>        -0.1398
     11 C9          0.5081   -4.2133   -3.6866 C.3       1 <0>        -0.1542
     12 C10         1.7238   -4.6017   -2.8402 C.3       1 <0>         0.1381
     13 C11         1.5198   -4.1063   -1.4068 C.3       1 <0>        -0.0137
     14 N3          2.9285   -3.9871   -3.4034 N.pl3     1 <0>        -0.7590
     15 C12         3.6179   -4.6225   -4.4424 C.ar      1 <0>         0.1606
     16 C13         3.1514   -5.8387   -4.9433 C.ar      1 <0>        -0.1270
     17 C14         3.8093   -6.4748   -5.9559 C.ar      1 <0>        -0.0940
     18 C15         4.9602   -5.9124   -6.5028 C.ar      1 <0>         0.0954
     19 C16         5.4395   -4.6858   -6.0056 C.ar      1 <0>        -0.1363
     20 C17         4.7527   -4.0404   -4.9706 C.ar      1 <0>        -0.1106
     21 C18         6.6394   -4.3714   -6.7744 C.2       1 <0>         0.0656
     22 N4          6.8263   -5.3334   -7.6325 N.2       1 <0>        -0.2343
     23 N5          5.8213   -6.2970   -7.5001 N.pl3     1 <0>        -0.5074
     24 H1          5.7453   -7.1073   -8.0280 H         1 <0>         0.4427
     25 H2         -0.9518    1.9222    0.0259 H         1 <0>         0.1502
     26 H3          1.2167    3.1384    0.0069 H         1 <0>         0.1516
     27 H4          3.3170    1.8532   -0.0197 H         1 <0>         0.1723
     28 H5         -0.9217   -0.5635    0.0082 H         1 <0>         0.1445
     29 H6          2.1058   -2.5163    0.5559 H         1 <0>         0.1468
     30 H7          0.3315   -2.5537    0.4181 H         1 <0>         0.1452
     31 H8         -0.7040   -2.7679   -1.7227 H         1 <0>         0.1333
     32 H9          0.0258   -1.1908   -2.1051 H         1 <0>         0.1266
     33 H10        -0.5808   -2.4175   -4.1738 H         1 <0>         0.1121
     34 H11         1.1824   -2.1987   -4.0542 H         1 <0>         0.0876
     35 H12        -0.3804   -4.7112   -3.2984 H         1 <0>         0.0904
     36 H13         0.6732   -4.5140   -4.7212 H         1 <0>         0.0991
     37 H14         1.8345   -5.6860   -2.8382 H         1 <0>         0.1241
     38 H15         2.3835   -4.3813   -0.8014 H         1 <0>         0.1395
     39 H16         0.6234   -4.5643   -0.9887 H         1 <0>         0.1452
     40 H17         3.2484   -3.1398   -3.0561 H         1 <0>         0.3886
     41 H18         2.2599   -6.2818   -4.5246 H         1 <0>         0.1294
     42 H19         3.4372   -7.4157   -6.3335 H         1 <0>         0.1315
     43 H20         5.1101   -3.0968   -4.5855 H         1 <0>         0.1273
     44 H21         7.2615   -3.4969   -6.6537 H         1 <0>         0.1985
     45 H22         2.1763   -2.2252   -1.8398 H         1 <0>         0.4211
@<TRIPOS>BOND
     1    1    6 ar
     2    1    2 ar
     3    1   25 1
     4    2    3 ar
     5    2   26 1
     6    3    4 ar
     7    3   27 1
     8    4    5 ar
     9    5    6 ar
    10    5    7 1
    11    6   28 1
    12    7    8 1
    13    7   29 1
    14    7   30 1
    15    8   13 1
    16    8    9 1
    17    8   45 1
    18    9   10 1
    19    9   31 1
    20    9   32 1
    21   10   11 1
    22   10   33 1
    23   10   34 1
    24   11   12 1
    25   11   35 1
    26   11   36 1
    27   12   13 1
    28   12   14 1
    29   12   37 1
    30   13   38 1
    31   13   39 1
    32   14   15 1
    33   14   40 1
    34   15   20 ar
    35   15   16 ar
    36   16   17 ar
    37   16   41 1
    38   17   18 ar
    39   17   42 1
    40   18   23 1
    41   18   19 ar
    42   19   20 ar
    43   19   21 1
    44   20   43 1
    45   21   22 2
    46   21   44 1
    47   22   23 1
    48   23   24 1
@<TRIPOS>MOLECULE
CHEMBL224696__1
   45    48     0     0     0
SMALL
USER_CHARGES

@<TRIPOS>ATOM
      1 C1         -0.0167    1.3821    0.0096 C.ar      1 <0>        -0.0674
      2 C2          1.1937    2.0586    0.0017 C.ar      1 <0>        -0.1351
      3 C3          2.3701    1.3338   -0.0134 C.ar      1 <0>         0.1112
      4 N1          2.3500    0.0151   -0.0207 N.ar      1 <0>        -0.4669
      5 C4          1.2181   -0.6611   -0.0136 C.ar      1 <0>         0.0530
      6 C5          0.0021   -0.0041    0.0020 C.ar      1 <0>        -0.1460
      7 C6          1.2505   -2.1677   -0.0230 C.3       1 <0>         0.0555
      8 N2          1.3680   -2.6463   -1.4069 N.4       1 <0>        -0.3809
      9 C7          0.1635   -2.2708   -2.1568 C.3       1 <0>        -0.0142
     10 C8          0.3153   -2.6956   -3.6190 C.3       1 <0>        -0.1396
     11 C9          0.5081   -4.2133   -3.6866 C.3       1 <0>        -0.1544
     12 C10         1.7238   -4.6017   -2.8402 C.3       1 <0>         0.1372
     13 C11         1.5198   -4.1063   -1.4068 C.3       1 <0>        -0.0137
     14 N3          2.9285   -3.9871   -3.4034 N.pl3     1 <0>        -0.7606
     15 C12         3.6177   -4.6224   -4.4421 C.ar      1 <0>         0.1636
     16 C13         3.1375   -5.8440   -4.9356 C.ar      1 <0>        -0.1235
     17 C14         3.7640   -6.5033   -5.9404 C.ar      1 <0>        -0.0523
     18 C15         4.9322   -5.9565   -6.5144 C.ar      1 <0>         0.0755
     19 C16         5.4384   -4.6752   -5.9991 C.ar      1 <0>        -0.1731
     20 C17         4.7361   -4.0367   -4.9540 C.ar      1 <0>        -0.1244
     21 C18         6.5738   -4.3805   -6.7302 C.2       1 <0>         0.0698
     22 N4          6.7639   -5.3716   -7.6139 N.pl3     1 <0>        -0.4186
     23 N5          5.7559   -6.3328   -7.4766 N.2       1 <0>        -0.2892
     24 H1          7.4918   -5.4155   -8.2534 H         1 <0>         0.4479
     25 H2         -0.9518    1.9222    0.0259 H         1 <0>         0.1501
     26 H3          1.2167    3.1384    0.0069 H         1 <0>         0.1514
     27 H4          3.3170    1.8532   -0.0197 H         1 <0>         0.1720
     28 H5         -0.9217   -0.5635    0.0082 H         1 <0>         0.1446
     29 H6          2.1058   -2.5163    0.5559 H         1 <0>         0.1466
     30 H7          0.3315   -2.5537    0.4181 H         1 <0>         0.1452
     31 H8         -0.7040   -2.7679   -1.7227 H         1 <0>         0.1331
     32 H9          0.0258   -1.1908   -2.1051 H         1 <0>         0.1260
     33 H10        -0.5808   -2.4175   -4.1738 H         1 <0>         0.1118
     34 H11         1.1824   -2.1987   -4.0542 H         1 <0>         0.0875
     35 H12        -0.3804   -4.7112   -3.2984 H         1 <0>         0.0899
     36 H13         0.6732   -4.5140   -4.7212 H         1 <0>         0.0996
     37 H14         1.8345   -5.6860   -2.8382 H         1 <0>         0.1246
     38 H15         2.3835   -4.3813   -0.8014 H         1 <0>         0.1392
     39 H16         0.6234   -4.5643   -0.9887 H         1 <0>         0.1447
     40 H17         3.2484   -3.1398   -3.0561 H         1 <0>         0.3873
     41 H18         2.2448   -6.2711   -4.5031 H         1 <0>         0.1277
     42 H19         3.3715   -7.4430   -6.3001 H         1 <0>         0.1356
     43 H20         5.0849   -3.0933   -4.5607 H         1 <0>         0.1201
     44 H21         7.1972   -3.5067   -6.6115 H         1 <0>         0.1884
     45 H22         2.1763   -2.2252   -1.8398 H         1 <0>         0.4211
@<TRIPOS>BOND
     1    1    6 ar
     2    1    2 ar
     3    1   25 1
     4    2    3 ar
     5    2   26 1
     6    3    4 ar
     7    3   27 1
     8    4    5 ar
     9    5    6 ar
    10    5    7 1
    11    6   28 1
    12    7    8 1
    13    7   29 1
    14    7   30 1
    15    8   13 1
    16    8    9 1
    17    8   45 1
    18    9   10 1
    19    9   31 1
    20    9   32 1
    21   10   11 1
    22   10   33 1
    23   10   34 1
    24   11   12 1
    25   11   35 1
    26   11   36 1
    27   12   13 1
    28   12   14 1
    29   12   37 1
    30   13   38 1
    31   13   39 1
    32   14   15 1
    33   14   40 1
    34   15   20 ar
    35   15   16 ar
    36   16   17 ar
    37   16   41 1
    38   17   18 ar
    39   17   42 1
    40   18   19 ar
    41   18   23 2
    42   19   20 ar
    43   19   21 2
    44   20   43 1
    45   21   44 1
    46   21   22 1
    47   22   24 1
    48   22   23 1
@<TRIPOS>MOLECULE
CHEMBL224696__2
   45    48     0     0     0
SMALL
USER_CHARGES

@<TRIPOS>ATOM
      1 C1         -0.0167    1.3821    0.0096 C.ar      1 <0>        -0.0674
      2 C2          1.1937    2.0586    0.0017 C.ar      1 <0>        -0.1348
      3 C3          2.3701    1.3338   -0.0134 C.ar      1 <0>         0.1116
      4 N1          2.3500    0.0151   -0.0207 N.ar      1 <0>        -0.4666
      5 C4          1.2181   -0.6611   -0.0136 C.ar      1 <0>         0.0531
      6 C5          0.0021   -0.0041    0.0020 C.ar      1 <0>        -0.1463
      7 C6          1.2505   -2.1677   -0.0230 C.3       1 <0>         0.0573
      8 N2          1.3680   -2.6463   -1.4069 N.4       1 <0>        -0.3758
      9 C7          0.1635   -2.2708   -2.1568 C.3       1 <0>        -0.0153
     10 C8          0.3153   -2.6956   -3.6190 C.3       1 <0>        -0.1420
     11 C9          0.5081   -4.2133   -3.6866 C.3       1 <0>        -0.1568
     12 C10         1.7238   -4.6017   -2.8402 C.3       1 <0>         0.1440
     13 C11         1.5198   -4.1063   -1.4068 C.3       1 <0>        -0.0167
     14 N3          1.8726   -6.0591   -2.8375 N.pl3     1 <0>        -0.7449
     15 C12         2.5622   -6.6940   -3.8767 C.ar      1 <0>         0.1618
     16 C13         3.1117   -5.9349   -4.9108 C.ar      1 <0>        -0.1315
     17 C14         3.7875   -6.5347   -5.9338 C.ar      1 <0>        -0.0951
     18 C15         3.9362   -7.9194   -5.9555 C.ar      1 <0>         0.0933
     19 C16         3.3865   -8.6949   -4.9173 C.ar      1 <0>        -0.1346
     20 C17         2.7004   -8.0674   -3.8708 C.ar      1 <0>        -0.1089
     21 C18         3.7091  -10.0840   -5.2270 C.2       1 <0>         0.0667
     22 N4          4.3825  -10.0977   -6.3419 N.2       1 <0>        -0.2350
     23 N5          4.5439   -8.7938   -6.8215 N.pl3     1 <0>        -0.5085
     24 H1          5.0099   -8.5472   -7.6357 H         1 <0>         0.4421
     25 H2         -0.9518    1.9222    0.0259 H         1 <0>         0.1502
     26 H3          1.2167    3.1384    0.0069 H         1 <0>         0.1516
     27 H4          3.3170    1.8532   -0.0197 H         1 <0>         0.1722
     28 H5         -0.9217   -0.5635    0.0082 H         1 <0>         0.1445
     29 H6          2.1058   -2.5163    0.5559 H         1 <0>         0.1472
     30 H7          0.3315   -2.5537    0.4181 H         1 <0>         0.1442
     31 H8         -0.7040   -2.7679   -1.7227 H         1 <0>         0.1325
     32 H9          0.0258   -1.1908   -2.1051 H         1 <0>         0.1287
     33 H10        -0.5808   -2.4175   -4.1738 H         1 <0>         0.1162
     34 H11         1.1824   -2.1987   -4.0542 H         1 <0>         0.0882
     35 H12        -0.3804   -4.7112   -3.2984 H         1 <0>         0.0867
     36 H13         0.6732   -4.5140   -4.7212 H         1 <0>         0.0983
     37 H14         2.6202   -4.1444   -3.2592 H         1 <0>         0.0977
     38 H15         2.3835   -4.3813   -0.8014 H         1 <0>         0.1389
     39 H16         0.6234   -4.5643   -0.9887 H         1 <0>         0.1354
     40 H17         1.4931   -6.5840   -2.1155 H         1 <0>         0.4054
     41 H18         3.0006   -4.8606   -4.9018 H         1 <0>         0.1252
     42 H19         4.2073   -5.9348   -6.7277 H         1 <0>         0.1301
     43 H20         2.2789   -8.6535   -3.0676 H         1 <0>         0.1303
     44 H21         3.4382  -10.9469   -4.6367 H         1 <0>         0.1993
     45 H22         2.1763   -2.2252   -1.8398 H         1 <0>         0.4274
@<TRIPOS>BOND
     1    1    6 ar
     2    1    2 ar
     3    1   25 1
     4    2    3 ar
     5    2   26 1
     6    3    4 ar
     7    3   27 1
     8    4    5 ar
     9    5    6 ar
    10    5    7 1
    11    6   28 1
    12    7    8 1
    13    7   29 1
    14    7   30 1
    15    8   13 1
    16    8    9 1
    17    8   45 1
    18    9   10 1
    19    9   31 1
    20    9   32 1
    21   10   11 1
    22   10   33 1
    23   10   34 1
    24   11   12 1
    25   11   35 1
    26   11   36 1
    27   12   13 1
    28   12   14 1
    29   12   37 1
    30   13   38 1
    31   13   39 1
    32   14   15 1
    33   14   40 1
    34   15   20 ar
    35   15   16 ar
    36   16   17 ar
    37   16   41 1
    38   17   18 ar
    39   17   42 1
    40   18   23 1
    41   18   19 ar
    42   19   20 ar
    43   19   21 1
    44   20   43 1
    45   21   22 2
    46   21   44 1
    47   22   23 1
    48   23   24 1
@<TRIPOS>MOLECULE
CHEMBL224696__3
   45    48     0     0     0
SMALL
USER_CHARGES

@<TRIPOS>ATOM
      1 C1         -0.0167    1.3821    0.0096 C.ar      1 <0>        -0.0675
      2 C2          1.1937    2.0586    0.0017 C.ar      1 <0>        -0.1350
      3 C3          2.3701    1.3338   -0.0134 C.ar      1 <0>         0.1116
      4 N1          2.3500    0.0151   -0.0207 N.ar      1 <0>        -0.4665
      5 C4          1.2181   -0.6611   -0.0136 C.ar      1 <0>         0.0534
      6 C5          0.0021   -0.0041    0.0020 C.ar      1 <0>        -0.1464
      7 C6          1.2505   -2.1677   -0.0230 C.3       1 <0>         0.0573
      8 N2          1.3680   -2.6463   -1.4069 N.4       1 <0>        -0.3759
      9 C7          0.1635   -2.2708   -2.1568 C.3       1 <0>        -0.0150
     10 C8          0.3153   -2.6956   -3.6190 C.3       1 <0>        -0.1423
     11 C9          0.5081   -4.2133   -3.6866 C.3       1 <0>        -0.1568
     12 C10         1.7238   -4.6017   -2.8402 C.3       1 <0>         0.1432
     13 C11         1.5198   -4.1063   -1.4068 C.3       1 <0>        -0.0165
     14 N3          1.8726   -6.0591   -2.8375 N.pl3     1 <0>        -0.7467
     15 C12         2.5620   -6.6938   -3.8764 C.ar      1 <0>         0.1624
     16 C13         3.1090   -5.9184   -4.9090 C.ar      1 <0>        -0.1252
     17 C14         3.7868   -6.4792   -5.9399 C.ar      1 <0>        -0.0540
     18 C15         3.9539   -7.8803   -5.9876 C.ar      1 <0>         0.0743
     19 C16         3.3814   -8.6964   -4.9060 C.ar      1 <0>        -0.1718
     20 C17         2.6909   -8.0498   -3.8580 C.ar      1 <0>        -0.1228
     21 C18         3.6900  -10.0108   -5.2022 C.2       1 <0>         0.0702
     22 N4          4.3842  -10.0226   -6.3499 N.pl3     1 <0>        -0.4188
     23 N5          4.5422   -8.7158   -6.8253 N.2       1 <0>        -0.2908
     24 H1          4.7263  -10.8189   -6.7857 H         1 <0>         0.4478
     25 H2         -0.9518    1.9222    0.0259 H         1 <0>         0.1500
     26 H3          1.2167    3.1384    0.0069 H         1 <0>         0.1515
     27 H4          3.3170    1.8532   -0.0197 H         1 <0>         0.1722
     28 H5         -0.9217   -0.5635    0.0082 H         1 <0>         0.1444
     29 H6          2.1058   -2.5163    0.5559 H         1 <0>         0.1470
     30 H7          0.3315   -2.5537    0.4181 H         1 <0>         0.1439
     31 H8         -0.7040   -2.7679   -1.7227 H         1 <0>         0.1321
     32 H9          0.0258   -1.1908   -2.1051 H         1 <0>         0.1283
     33 H10        -0.5808   -2.4175   -4.1738 H         1 <0>         0.1159
     34 H11         1.1824   -2.1987   -4.0542 H         1 <0>         0.0885
     35 H12        -0.3804   -4.7112   -3.2984 H         1 <0>         0.0860
     36 H13         0.6732   -4.5140   -4.7212 H         1 <0>         0.0987
     37 H14         2.6202   -4.1444   -3.2592 H         1 <0>         0.0979
     38 H15         2.3835   -4.3813   -0.8014 H         1 <0>         0.1385
     39 H16         0.6234   -4.5643   -0.9887 H         1 <0>         0.1347
     40 H17         1.4931   -6.5840   -2.1155 H         1 <0>         0.4040
     41 H18         2.9864   -4.8457   -4.8822 H         1 <0>         0.1236
     42 H19         4.1971   -5.8571   -6.7217 H         1 <0>         0.1343
     43 H20         2.2647   -8.6261   -3.0501 H         1 <0>         0.1232
     44 H21         3.4205  -10.8751   -4.6135 H         1 <0>         0.1892
     45 H22         2.1763   -2.2252   -1.8398 H         1 <0>         0.4275
@<TRIPOS>BOND
     1    1    6 ar
     2    1    2 ar
     3    1   25 1
     4    2    3 ar
     5    2   26 1
     6    3    4 ar
     7    3   27 1
     8    4    5 ar
     9    5    6 ar
    10    5    7 1
    11    6   28 1
    12    7    8 1
    13    7   29 1
    14    7   30 1
    15    8   13 1
    16    8    9 1
    17    8   45 1
    18    9   10 1
    19    9   31 1
    20    9   32 1
    21   10   11 1
    22   10   33 1
    23   10   34 1
    24   11   12 1
    25   11   35 1
    26   11   36 1
    27   12   13 1
    28   12   14 1
    29   12   37 1
    30   13   38 1
    31   13   39 1
    32   14   15 1
    33   14   40 1
    34   15   20 ar
    35   15   16 ar
    36   16   17 ar
    37   16   41 1
    38   17   18 ar
    39   17   42 1
    40   18   19 ar
    41   18   23 2
    42   19   20 ar
    43   19   21 2
    44   20   43 1
    45   21   44 1
    46   21   22 1
    47   22   24 1
    48   22   23 1
@<TRIPOS>MOLECULE
CHEMBL390389
   43    46     0     0     0
SMALL
USER_CHARGES

@<TRIPOS>ATOM
      1 C1         -0.0167    1.3777    0.0096 C.ar      1 <0>        -0.0986
      2 C2          1.1710    2.0855    0.0021 C.ar      1 <0>        -0.0909
      3 C3          2.3777    1.4116   -0.0130 C.ar      1 <0>        -0.1494
      4 C4          2.3977    0.0294   -0.0210 C.ar      1 <0>        -0.0880
      5 C5          1.2098   -0.6793   -0.0135 C.ar      1 <0>        -0.0347
      6 C6          0.0021   -0.0041    0.0020 C.ar      1 <0>        -0.0767
      7 Cl1         1.2341   -2.4151   -0.0242 Cl        1 <0>        -0.0401
      8 C7          3.6718    2.1839   -0.0212 C.3       1 <0>         0.0470
      9 N1          4.1055    2.4274    1.3610 N.4       1 <0>        -0.3869
     10 C8          3.1424    3.3249    2.0338 C.3       1 <0>        -0.0099
     11 C9          4.0104    4.2159    2.9571 C.3       1 <0>        -0.1649
     12 C10         5.2770    4.4284    2.0869 C.3       1 <0>         0.1477
     13 C11         5.4294    3.0764    1.3586 C.3       1 <0>        -0.0205
     14 N2          6.4450    4.6975    2.9293 N.pl3     1 <0>        -0.7441
     15 C12         6.7250    6.0056    3.3402 C.ar      1 <0>         0.1583
     16 C13         5.8860    7.0504    2.9502 C.ar      1 <0>        -0.1299
     17 C14         6.1417    8.3333    3.3399 C.ar      1 <0>        -0.0952
     18 C15         7.2497    8.6138    4.1358 C.ar      1 <0>         0.0944
     19 C16         8.1025    7.5676    4.5355 C.ar      1 <0>        -0.1354
     20 C17         7.8265    6.2553    4.1339 C.ar      1 <0>        -0.1074
     21 C18         9.1505    8.1788    5.3465 C.2       1 <0>         0.0669
     22 N3          8.9150    9.4586    5.4033 N.2       1 <0>        -0.2345
     23 N4          7.7611    9.7674    4.6758 N.pl3     1 <0>        -0.5081
     24 H1          7.3832   10.6544    4.5696 H         1 <0>         0.4424
     25 H2         -0.9592    1.9048    0.0259 H         1 <0>         0.1467
     26 H3          1.1559    3.1654    0.0076 H         1 <0>         0.1373
     27 H4          3.3407   -0.4970   -0.0336 H         1 <0>         0.1421
     28 H5         -0.9257   -0.5568    0.0079 H         1 <0>         0.1469
     29 H6          4.4349    1.6086   -0.5454 H         1 <0>         0.1398
     30 H7          3.5229    3.1370   -0.5286 H         1 <0>         0.1406
     31 H8          2.6175    3.9368    1.3002 H         1 <0>         0.1336
     32 H9          2.4322    2.7457    2.6238 H         1 <0>         0.1357
     33 H10         3.5145    5.1645    3.1630 H         1 <0>         0.1192
     34 H11         4.2556    3.6961    3.8832 H         1 <0>         0.1038
     35 H12         5.1221    5.2362    1.3716 H         1 <0>         0.1142
     36 H13         6.1500    2.4507    1.8852 H         1 <0>         0.1368
     37 H14         5.7590    3.2428    0.3330 H         1 <0>         0.1429
     38 H15         7.0243    3.9689    3.2022 H         1 <0>         0.4051
     39 H16         5.0249    6.8416    2.3328 H         1 <0>         0.1256
     40 H17         5.4840    9.1321    3.0303 H         1 <0>         0.1307
     41 H18         8.4724    5.4454    4.4391 H         1 <0>         0.1301
     42 H19         9.9743    7.6620    5.8163 H         1 <0>         0.1994
     43 H20         4.1572    1.5523    1.8606 H         1 <0>         0.4281
@<TRIPOS>BOND
     1    1    6 ar
     2    1    2 ar
     3    1   25 1
     4    2    3 ar
     5    2   26 1
     6    3    4 ar
     7    3    8 1
     8    4    5 ar
     9    4   27 1
    10    5    6 ar
    11    5    7 1
    12    6   28 1
    13    8    9 1
    14    8   29 1
    15    8   30 1
    16    9   13 1
    17    9   10 1
    18    9   43 1
    19   10   11 1
    20   10   31 1
    21   10   32 1
    22   11   12 1
    23   11   33 1
    24   11   34 1
    25   12   13 1
    26   12   14 1
    27   12   35 1
    28   13   36 1
    29   13   37 1
    30   14   15 1
    31   14   38 1
    32   15   20 ar
    33   15   16 ar
    34   16   17 ar
    35   16   39 1
    36   17   18 ar
    37   17   40 1
    38   18   23 1
    39   18   19 ar
    40   19   20 ar
    41   19   21 1
    42   20   41 1
    43   21   22 2
    44   21   42 1
    45   22   23 1
    46   23   24 1
@<TRIPOS>MOLECULE
CHEMBL390389__1
   43    46     0     0     0
SMALL
USER_CHARGES

@<TRIPOS>ATOM
      1 C1         -0.0167    1.3777    0.0096 C.ar      1 <0>        -0.0986
      2 C2          1.1710    2.0855    0.0021 C.ar      1 <0>        -0.0907
      3 C3          2.3777    1.4116   -0.0130 C.ar      1 <0>        -0.1491
      4 C4          2.3977    0.0294   -0.0210 C.ar      1 <0>        -0.0881
      5 C5          1.2098   -0.6793   -0.0135 C.ar      1 <0>        -0.0349
      6 C6          0.0021   -0.0041    0.0020 C.ar      1 <0>        -0.0769
      7 Cl1         1.2341   -2.4151   -0.0242 Cl        1 <0>        -0.0405
      8 C7          3.6718    2.1839   -0.0212 C.3       1 <0>         0.0469
      9 N1          4.1055    2.4274    1.3610 N.4       1 <0>        -0.3869
     10 C8          3.1424    3.3249    2.0338 C.3       1 <0>        -0.0101
     11 C9          4.0104    4.2159    2.9571 C.3       1 <0>        -0.1650
     12 C10         5.2770    4.4284    2.0869 C.3       1 <0>         0.1472
     13 C11         5.4294    3.0764    1.3586 C.3       1 <0>        -0.0205
     14 N2          6.4450    4.6975    2.9293 N.pl3     1 <0>        -0.7459
     15 C12         6.7249    6.0053    3.3401 C.ar      1 <0>         0.1591
     16 C13         5.8732    7.0453    2.9407 C.ar      1 <0>        -0.1245
     17 C14         6.0952    8.3305    3.3091 C.ar      1 <0>        -0.0536
     18 C15         7.2101    8.6443    4.1164 C.ar      1 <0>         0.0747
     19 C16         8.1054    7.5556    4.5371 C.ar      1 <0>        -0.1732
     20 C17         7.8152    6.2374    4.1232 C.ar      1 <0>        -0.1206
     21 C18         9.0955    8.1381    5.3056 C.2       1 <0>         0.0713
     22 N3          8.8507    9.4557    5.3638 N.pl3     1 <0>        -0.4185
     23 N4          7.6956    9.7588    4.6341 N.2       1 <0>        -0.2903
     24 H1          9.3936   10.1025    5.8412 H         1 <0>         0.4481
     25 H2         -0.9592    1.9048    0.0259 H         1 <0>         0.1467
     26 H3          1.1559    3.1654    0.0076 H         1 <0>         0.1376
     27 H4          3.3407   -0.4970   -0.0336 H         1 <0>         0.1419
     28 H5         -0.9257   -0.5568    0.0079 H         1 <0>         0.1468
     29 H6          4.4349    1.6086   -0.5454 H         1 <0>         0.1395
     30 H7          3.5229    3.1370   -0.5286 H         1 <0>         0.1408
     31 H8          2.6175    3.9368    1.3002 H         1 <0>         0.1336
     32 H9          2.4322    2.7457    2.6238 H         1 <0>         0.1353
     33 H10         3.5145    5.1645    3.1630 H         1 <0>         0.1196
     34 H11         4.2556    3.6961    3.8832 H         1 <0>         0.1033
     35 H12         5.1221    5.2362    1.3716 H         1 <0>         0.1144
     36 H13         6.1500    2.4507    1.8852 H         1 <0>         0.1361
     37 H14         5.7590    3.2428    0.3330 H         1 <0>         0.1425
     38 H15         7.0243    3.9689    3.2022 H         1 <0>         0.4037
     39 H16         5.0177    6.8160    2.3227 H         1 <0>         0.1239
     40 H17         5.4225    9.1113    2.9862 H         1 <0>         0.1348
     41 H18         8.4547    5.4199    4.4219 H         1 <0>         0.1231
     42 H19         9.9200    7.6235    5.7765 H         1 <0>         0.1893
     43 H20         4.1572    1.5523    1.8606 H         1 <0>         0.4277
@<TRIPOS>BOND
     1    1    6 ar
     2    1    2 ar
     3    1   25 1
     4    2    3 ar
     5    2   26 1
     6    3    4 ar
     7    3    8 1
     8    4    5 ar
     9    4   27 1
    10    5    6 ar
    11    5    7 1
    12    6   28 1
    13    8    9 1
    14    8   29 1
    15    8   30 1
    16    9   13 1
    17    9   10 1
    18    9   43 1
    19   10   11 1
    20   10   31 1
    21   10   32 1
    22   11   12 1
    23   11   33 1
    24   11   34 1
    25   12   13 1
    26   12   14 1
    27   12   35 1
    28   13   36 1
    29   13   37 1
    30   14   15 1
    31   14   38 1
    32   15   20 ar
    33   15   16 ar
    34   16   17 ar
    35   16   39 1
    36   17   18 ar
    37   17   40 1
    38   18   19 ar
    39   18   23 2
    40   19   20 ar
    41   19   21 2
    42   20   41 1
    43   21   42 1
    44   21   22 1
    45   22   24 1
    46   22   23 1
@<TRIPOS>MOLECULE
CHEMBL390389__2
   43    46     0     0     0
SMALL
USER_CHARGES

@<TRIPOS>ATOM
      1 C1         -0.0167    1.3777    0.0096 C.ar      1 <0>        -0.0989
      2 C2          1.1710    2.0855    0.0021 C.ar      1 <0>        -0.0907
      3 C3          2.3777    1.4116   -0.0130 C.ar      1 <0>        -0.1491
      4 C4          2.3977    0.0294   -0.0210 C.ar      1 <0>        -0.0879
      5 C5          1.2098   -0.6793   -0.0135 C.ar      1 <0>        -0.0349
      6 C6          0.0021   -0.0041    0.0020 C.ar      1 <0>        -0.0766
      7 Cl1         1.2341   -2.4151   -0.0242 Cl        1 <0>        -0.0401
      8 C7          3.6718    2.1839   -0.0212 C.3       1 <0>         0.0516
      9 N1          4.1055    2.4274    1.3610 N.4       1 <0>        -0.3939
     10 C8          3.2079    3.4096    2.0218 C.3       1 <0>        -0.0041
     11 C9          4.0480    3.9852    3.1820 C.3       1 <0>        -0.1703
     12 C10         5.5159    3.7695    2.7595 C.3       1 <0>         0.1431
     13 C11         5.4391    3.0817    1.3795 C.3       1 <0>        -0.0121
     14 N2          6.2079    5.0560    2.6490 N.pl3     1 <0>        -0.7450
     15 C12         6.7993    5.6317    3.7792 C.ar      1 <0>         0.1573
     16 C13         6.7328    4.9746    5.0085 C.ar      1 <0>        -0.1292
     17 C14         7.3027    5.5192    6.1227 C.ar      1 <0>        -0.0951
     18 C15         7.9606    6.7443    6.0429 C.ar      1 <0>         0.0947
     19 C16         8.0342    7.4158    4.8079 C.ar      1 <0>        -0.1358
     20 C17         7.4506    6.8441    3.6712 C.ar      1 <0>        -0.1074
     21 C18         8.7750    8.6488    5.0541 C.2       1 <0>         0.0668
     22 N3          9.0943    8.6765    6.3165 N.2       1 <0>        -0.2346
     23 N4          8.6153    7.5299    6.9584 N.pl3     1 <0>        -0.5080
     24 H1          8.7272    7.3233    7.8996 H         1 <0>         0.4425
     25 H2         -0.9592    1.9048    0.0259 H         1 <0>         0.1466
     26 H3          1.1559    3.1654    0.0076 H         1 <0>         0.1371
     27 H4          3.3407   -0.4970   -0.0336 H         1 <0>         0.1422
     28 H5         -0.9257   -0.5568    0.0079 H         1 <0>         0.1470
     29 H6          4.4349    1.6086   -0.5454 H         1 <0>         0.1396
     30 H7          3.5229    3.1370   -0.5286 H         1 <0>         0.1392
     31 H8          2.9305    4.2002    1.3246 H         1 <0>         0.1327
     32 H9          2.3180    2.9120    2.4072 H         1 <0>         0.1337
     33 H10         3.8424    5.0483    3.3072 H         1 <0>         0.1198
     34 H11         3.8369    3.4466    4.1058 H         1 <0>         0.1036
     35 H12         6.0252    3.1250    3.4759 H         1 <0>         0.1140
     36 H13         6.2292    2.3372    1.2814 H         1 <0>         0.1443
     37 H14         5.5109    3.8210    0.5818 H         1 <0>         0.1381
     38 H15         6.2561    5.5088    1.7925 H         1 <0>         0.4046
     39 H16         6.2243    4.0244    5.0791 H         1 <0>         0.1257
     40 H17         7.2432    4.9997    7.0677 H         1 <0>         0.1306
     41 H18         7.5056    7.3495    2.7184 H         1 <0>         0.1300
     42 H19         9.0158    9.4037    4.3202 H         1 <0>         0.1993
     43 H20         4.1292    1.5630    1.8809 H         1 <0>         0.4296
@<TRIPOS>BOND
     1    1    6 ar
     2    1    2 ar
     3    1   25 1
     4    2    3 ar
     5    2   26 1
     6    3    4 ar
     7    3    8 1
     8    4    5 ar
     9    4   27 1
    10    5    6 ar
    11    5    7 1
    12    6   28 1
    13    8    9 1
    14    8   29 1
    15    8   30 1
    16    9   13 1
    17    9   10 1
    18    9   43 1
    19   10   11 1
    20   10   31 1
    21   10   32 1
    22   11   12 1
    23   11   33 1
    24   11   34 1
    25   12   13 1
    26   12   14 1
    27   12   35 1
    28   13   36 1
    29   13   37 1
    30   14   15 1
    31   14   38 1
    32   15   20 ar
    33   15   16 ar
    34   16   17 ar
    35   16   39 1
    36   17   18 ar
    37   17   40 1
    38   18   23 1
    39   18   19 ar
    40   19   20 ar
    41   19   21 1
    42   20   41 1
    43   21   22 2
    44   21   42 1
    45   22   23 1
    46   23   24 1
@<TRIPOS>MOLECULE
CHEMBL390389__3
   43    46     0     0     0
SMALL
USER_CHARGES

@<TRIPOS>ATOM
      1 C1         -0.0167    1.3777    0.0096 C.ar      1 <0>        -0.0990
      2 C2          1.1710    2.0855    0.0021 C.ar      1 <0>        -0.0907
      3 C3          2.3777    1.4116   -0.0130 C.ar      1 <0>        -0.1488
      4 C4          2.3977    0.0294   -0.0210 C.ar      1 <0>        -0.0879
      5 C5          1.2098   -0.6793   -0.0135 C.ar      1 <0>        -0.0348
      6 C6          0.0021   -0.0041    0.0020 C.ar      1 <0>        -0.0768
      7 Cl1         1.2341   -2.4151   -0.0242 Cl        1 <0>        -0.0402
      8 C7          3.6718    2.1839   -0.0212 C.3       1 <0>         0.0516
      9 N1          4.1055    2.4274    1.3610 N.4       1 <0>        -0.3939
     10 C8          3.2079    3.4096    2.0218 C.3       1 <0>        -0.0040
     11 C9          4.0480    3.9852    3.1820 C.3       1 <0>        -0.1704
     12 C10         5.5159    3.7695    2.7595 C.3       1 <0>         0.1425
     13 C11         5.4391    3.0817    1.3795 C.3       1 <0>        -0.0121
     14 N2          6.2079    5.0560    2.6490 N.pl3     1 <0>        -0.7467
     15 C12         6.7992    5.6316    3.7788 C.ar      1 <0>         0.1585
     16 C13         6.7245    4.9600    5.0077 C.ar      1 <0>        -0.1242
     17 C14         7.2792    5.4699    6.1342 C.ar      1 <0>        -0.0535
     18 C15         7.9531    6.7095    6.0829 C.ar      1 <0>         0.0749
     19 C16         8.0332    7.4164    4.7955 C.ar      1 <0>        -0.1734
     20 C17         7.4386    6.8284    3.6580 C.ar      1 <0>        -0.1207
     21 C18         8.7362    8.5826    5.0325 C.2       1 <0>         0.0711
     22 N3          9.0650    8.6088    6.3327 N.pl3     1 <0>        -0.4185
     23 N4          8.5829    7.4597    6.9698 N.2       1 <0>        -0.2902
     24 H1          9.5634    9.3187    6.7669 H         1 <0>         0.4480
     25 H2         -0.9592    1.9048    0.0259 H         1 <0>         0.1464
     26 H3          1.1559    3.1654    0.0076 H         1 <0>         0.1371
     27 H4          3.3407   -0.4970   -0.0336 H         1 <0>         0.1422
     28 H5         -0.9257   -0.5568    0.0079 H         1 <0>         0.1469
     29 H6          4.4349    1.6086   -0.5454 H         1 <0>         0.1394
     30 H7          3.5229    3.1370   -0.5286 H         1 <0>         0.1389
     31 H8          2.9305    4.2002    1.3246 H         1 <0>         0.1322
     32 H9          2.3180    2.9120    2.4072 H         1 <0>         0.1334
     33 H10         3.8424    5.0483    3.3072 H         1 <0>         0.1197
     34 H11         3.8369    3.4466    4.1058 H         1 <0>         0.1037
     35 H12         6.0252    3.1250    3.4759 H         1 <0>         0.1143
     36 H13         6.2292    2.3372    1.2814 H         1 <0>         0.1439
     37 H14         5.5109    3.8210    0.5818 H         1 <0>         0.1375
     38 H15         6.2561    5.5088    1.7925 H         1 <0>         0.4032
     39 H16         6.2109    4.0113    5.0577 H         1 <0>         0.1241
     40 H17         7.2058    4.9306    7.0670 H         1 <0>         0.1347
     41 H18         7.4870    7.3253    2.7003 H         1 <0>         0.1229
     42 H19         8.9783    9.3387    4.3004 H         1 <0>         0.1893
     43 H20         4.1292    1.5630    1.8809 H         1 <0>         0.4296
@<TRIPOS>BOND
     1    1    6 ar
     2    1    2 ar
     3    1   25 1
     4    2    3 ar
     5    2   26 1
     6    3    4 ar
     7    3    8 1
     8    4    5 ar
     9    4   27 1
    10    5    6 ar
    11    5    7 1
    12    6   28 1
    13    8    9 1
    14    8   29 1
    15    8   30 1
    16    9   13 1
    17    9   10 1
    18    9   43 1
    19   10   11 1
    20   10   31 1
    21   10   32 1
    22   11   12 1
    23   11   33 1
    24   11   34 1
    25   12   13 1
    26   12   14 1
    27   12   35 1
    28   13   36 1
    29   13   37 1
    30   14   15 1
    31   14   38 1
    32   15   20 ar
    33   15   16 ar
    34   16   17 ar
    35   16   39 1
    36   17   18 ar
    37   17   40 1
    38   18   19 ar
    39   18   23 2
    40   19   20 ar
    41   19   21 2
    42   20   41 1
    43   21   42 1
    44   21   22 1
    45   22   24 1
    46   22   23 1
@<TRIPOS>MOLECULE
CHEMBL218257
   31    33     0     0     0
SMALL
USER_CHARGES

@<TRIPOS>ATOM
      1 C1         -0.0187    1.5258    0.0104 C.3       1 <0>        -0.1682
      2 C2          0.0021   -0.0041    0.0020 C.3       1 <0>         0.0960
      3 N1         -1.3723   -0.5112    0.0124 N.pl3     1 <0>        -0.4609
      4 C3         -2.1288   -0.7942    1.1248 C.ar      1 <0>         0.1344
      5 C4         -1.9240   -0.7240    2.4964 C.ar      1 <0>        -0.1933
      6 C5         -2.9496   -1.1058    3.3444 C.ar      1 <0>         0.3343
      7 N2         -4.1113   -1.5327    2.8673 N.ar      1 <0>        -0.5310
      8 C6         -4.3540   -1.6172    1.5760 C.ar      1 <0>         0.2348
      9 C7         -3.3758   -1.2526    0.6492 C.ar      1 <0>        -0.0376
     10 N3         -3.3192   -1.2268   -0.7029 N.2       1 <0>        -0.4325
     11 C8         -2.1464   -0.7864   -1.0857 C.2       1 <0>         0.3222
     12 C9         -1.7195   -0.6153   -2.4918 C.2       1 <0>         0.1383
     13 C10        -2.5350   -0.8988   -3.6794 C.2       1 <0>         0.3639
     14 N4         -1.8238   -0.6281   -4.7390 N.2       1 <0>        -0.3501
     15 O1         -0.5544   -0.1711   -4.3079 O.3       1 <0>         0.0425
     16 N5         -0.5522   -0.1801   -2.8913 N.2       1 <0>        -0.2503
     17 N6         -3.8398   -1.3740   -3.6754 N.pl3     1 <0>        -0.8014
     18 O2         -2.7630   -1.0426    4.6875 O.3       1 <0>        -0.3019
     19 C11        -3.8555   -1.4490    5.5142 C.3       1 <0>         0.0390
     20 H1          1.0039    1.9031    0.0027 H         1 <0>         0.0864
     21 H2         -0.5459    1.8868   -0.8726 H         1 <0>         0.0635
     22 H3         -0.5289    1.8773    0.9072 H         1 <0>         0.0647
     23 H4          0.5123   -0.3556   -0.8948 H         1 <0>         0.1085
     24 H5          0.5293   -0.3651    0.8851 H         1 <0>         0.1009
     25 H6         -0.9815   -0.3780    2.8945 H         1 <0>         0.1455
     26 H7         -5.3147   -1.9708    1.2320 H         1 <0>         0.1787
     27 H8         -4.2902   -1.5477   -2.8340 H         1 <0>         0.4309
     28 H9         -4.3009   -1.5324   -4.5140 H         1 <0>         0.4189
     29 H10        -4.7206   -0.8187    5.3087 H         1 <0>         0.0622
     30 H11        -4.1047   -2.4887    5.3017 H         1 <0>         0.0622
     31 H12        -3.5743   -1.3498    6.5626 H         1 <0>         0.0996
@<TRIPOS>BOND
     1    1    2 1
     2    1   20 1
     3    1   21 1
     4    1   22 1
     5    2    3 1
     6    2   23 1
     7    2   24 1
     8    3   11 1
     9    3    4 1
    10    4    9 ar
    11    4    5 ar
    12    5    6 ar
    13    5   25 1
    14    6    7 ar
    15    6   18 1
    16    7    8 ar
    17    8    9 ar
    18    8   26 1
    19    9   10 1
    20   10   11 2
    21   11   12 1
    22   12   16 2
    23   12   13 1
    24   13   14 2
    25   13   17 1
    26   14   15 1
    27   15   16 1
    28   17   27 1
    29   17   28 1
    30   18   19 1
    31   19   29 1
    32   19   30 1
    33   19   31 1
@<TRIPOS>MOLECULE
CHEMBL575798
   53    56     0     0     0
SMALL
USER_CHARGES

@<TRIPOS>ATOM
      1 C1          0.7753    2.5588    0.0584 C.ar      1 <0>        -0.1151
      2 C2          2.0610    3.0623    0.1244 C.ar      1 <0>        -0.1161
      3 C3          3.1424    2.2015    0.1015 C.ar      1 <0>        -0.1128
      4 C4          2.9381    0.8372    0.0132 C.ar      1 <0>        -0.0889
      5 C5          1.6524    0.3336   -0.0518 C.ar      1 <0>        -0.1128
      6 C6          0.5710    1.1945   -0.0304 C.ar      1 <0>        -0.1159
      7 C7          4.1171   -0.1011   -0.0127 C.3       1 <0>        -0.0912
      8 C8          4.4780   -0.5061    1.4178 C.3       1 <0>         0.1384
      9 N1          5.6241   -1.4183    1.3926 N.pl3     1 <0>        -0.6769
     10 C9          6.1325   -1.9205    2.5734 C.ar      1 <0>         0.6581
     11 N2          5.5787   -1.5808    3.7333 N.ar      1 <0>        -0.6477
     12 C10         6.0679   -2.0647    4.8704 C.ar      1 <0>         0.6595
     13 N3          7.1110   -2.8884    4.8480 N.ar      1 <0>        -0.6719
     14 C11         7.6649   -3.2282    3.6883 C.ar      1 <0>         0.6577
     15 N4          7.1724   -2.7481    2.5505 N.ar      1 <0>        -0.6724
     16 N5          8.7479   -4.0833    3.6651 N.pl3     1 <0>        -0.5965
     17 C12         9.3806   -4.4682    2.3940 C.3       1 <0>         0.1052
     18 C13        10.8913   -4.2426    2.5156 C.3       1 <0>        -0.0217
     19 N6         11.4001   -4.9643    3.6888 N.4       1 <0>        -0.5059
     20 C14        10.8169   -4.4021    4.9135 C.3       1 <0>        -0.0213
     21 C15         9.3060   -4.6311    4.9111 C.3       1 <0>         0.1040
     22 N7          5.4924   -1.7111    6.0762 N.pl3     1 <0>        -0.6207
     23 C16         4.3281   -0.9449    6.0947 C.ar      1 <0>         0.1990
     24 C17         3.3637   -1.0850    5.0975 C.ar      1 <0>        -0.1648
     25 C18         2.2255   -0.3079    5.1520 C.ar      1 <0>         0.1203
     26 N8          2.0442    0.5588    6.1307 N.ar      1 <0>        -0.4909
     27 C19         2.9332    0.7206    7.0927 C.ar      1 <0>         0.1228
     28 C20         4.0950   -0.0225    7.1141 C.ar      1 <0>        -0.1991
     29 H1         -0.0697    3.2310    0.0808 H         1 <0>         0.1243
     30 H2          2.2206    4.1282    0.1934 H         1 <0>         0.1238
     31 H3          4.1469    2.5950    0.1523 H         1 <0>         0.1201
     32 H4          1.4928   -0.7322   -0.1212 H         1 <0>         0.1215
     33 H5         -0.4335    0.8011   -0.0816 H         1 <0>         0.1246
     34 H6          3.8610   -0.9905   -0.5885 H         1 <0>         0.0814
     35 H7          4.9687    0.3982   -0.4749 H         1 <0>         0.0804
     36 H8          4.7341    0.3832    1.9936 H         1 <0>         0.0752
     37 H9          3.6264   -1.0054    1.8799 H         1 <0>         0.0758
     38 H10         6.0257   -1.6693    0.5461 H         1 <0>         0.4184
     39 H11         9.1827   -5.5205    2.1901 H         1 <0>         0.0950
     40 H12         8.9825   -3.8543    1.5861 H         1 <0>         0.1422
     41 H13        11.3874   -4.6123    1.6182 H         1 <0>         0.1483
     42 H14        11.0917   -3.1772    2.6292 H         1 <0>         0.1342
     43 H15        11.1514   -5.9394    3.6162 H         1 <0>         0.4292
     44 H16        11.2581   -4.8892    5.7830 H         1 <0>         0.1486
     45 H17        11.0195   -3.3319    4.9545 H         1 <0>         0.1341
     46 H18         8.8586   -4.1249    5.7665 H         1 <0>         0.1419
     47 H19         9.1004   -5.7001    4.9657 H         1 <0>         0.0946
     48 H20         5.8987   -1.9962    6.9096 H         1 <0>         0.4290
     49 H21         3.5061   -1.7918    4.2934 H         1 <0>         0.1423
     50 H22         1.4732   -0.4097    4.3838 H         1 <0>         0.1581
     51 H23         2.7466    1.4410    7.8754 H         1 <0>         0.1620
     52 H24         4.8160    0.1113    7.9069 H         1 <0>         0.1380
     53 H25        12.4047   -4.8778    3.7257 H         1 <0>         0.4344
@<TRIPOS>BOND
     1    1    6 ar
     2    1    2 ar
     3    1   29 1
     4    2    3 ar
     5    2   30 1
     6    3    4 ar
     7    3   31 1
     8    4    5 ar
     9    4    7 1
    10    5    6 ar
    11    5   32 1
    12    6   33 1
    13    7    8 1
    14    7   34 1
    15    7   35 1
    16    8    9 1
    17    8   36 1
    18    8   37 1
    19    9   10 1
    20    9   38 1
    21   10   15 ar
    22   10   11 ar
    23   11   12 ar
    24   12   13 ar
    25   12   22 1
    26   13   14 ar
    27   14   15 ar
    28   14   16 1
    29   16   21 1
    30   16   17 1
    31   17   18 1
    32   17   39 1
    33   17   40 1
    34   18   19 1
    35   18   41 1
    36   18   42 1
    37   19   20 1
    38   19   43 1
    39   19   53 1
    40   20   21 1
    41   20   44 1
    42   20   45 1
    43   21   46 1
    44   21   47 1
    45   22   23 1
    46   22   48 1
    47   23   28 ar
    48   23   24 ar
    49   24   25 ar
    50   24   49 1
    51   25   26 ar
    52   25   50 1
    53   26   27 ar
    54   27   28 ar
    55   27   51 1
    56   28   52 1
@<TRIPOS>MOLECULE
CHEMBL493067
   47    50     0     0     0
SMALL
USER_CHARGES

@<TRIPOS>ATOM
      1 C1          0.2335    1.0402   -0.2122 C.3       1 <0>        -0.1579
      2 C2          0.1591   -0.4740   -0.0062 C.3       1 <0>         0.1009
      3 N1         -1.2435   -0.8969    0.0058 N.pl3     1 <0>        -0.4485
      4 C3         -2.0302   -1.0665    1.1129 C.ar      1 <0>         0.1363
      5 C4         -1.8429   -0.9254    2.4975 C.ar      1 <0>        -0.1906
      6 C5         -2.9155   -1.1972    3.3452 C.ar      1 <0>         0.1538
      7 N2         -4.0833   -1.5794    2.8641 N.ar      1 <0>        -0.4836
      8 C6         -4.3066   -1.7256    1.5741 C.ar      1 <0>         0.2268
      9 C7         -3.2946   -1.4766    0.6443 C.ar      1 <0>        -0.0062
     10 N3         -3.2171   -1.5358   -0.7056 N.2       1 <0>        -0.4329
     11 C8         -2.0131   -1.1903   -1.0901 C.2       1 <0>         0.3386
     12 C9         -1.5525   -1.1298   -2.4948 C.2       1 <0>         0.1288
     13 C10        -2.3634   -1.4345   -3.6803 C.2       1 <0>         0.3637
     14 N4         -1.6189   -1.2712   -4.7391 N.2       1 <0>        -0.3431
     15 O1         -0.3314   -0.8661   -4.3093 O.3       1 <0>         0.0495
     16 N5         -0.3542   -0.7902   -2.8949 N.2       1 <0>        -0.2456
     17 N6         -3.6946   -1.8298   -3.6754 N.pl3     1 <0>        -0.8007
     18 C11        -0.5400   -0.4994    3.0427 C.2       1 <0>         0.5770
     19 O2          0.0647    0.4195    2.5247 O.2       1 <0>        -0.5079
     20 N7         -0.0199   -1.1288    4.1150 N.am      1 <0>        -0.7225
     21 C12         1.2740   -0.7058    4.6564 C.3       1 <0>         0.1283
     22 C13         2.4017   -1.4036    3.8903 C.3       1 <0>        -0.1530
     23 C14         3.7454   -1.0157    4.5142 C.3       1 <0>        -0.1443
     24 C15         3.7378   -1.3853    5.9990 C.3       1 <0>        -0.0109
     25 N8          2.6547   -0.6664    6.6804 N.4       1 <0>        -0.4992
     26 C16         1.3581   -1.0869    6.1360 C.3       1 <0>        -0.0192
     27 H1          1.2771    1.3548   -0.2211 H         1 <0>         0.0812
     28 H2         -0.2327    1.3010   -1.1623 H         1 <0>         0.0580
     29 H3         -0.2908    1.5436    0.6001 H         1 <0>         0.0753
     30 H4          0.6835   -0.9774   -0.8184 H         1 <0>         0.1010
     31 H5          0.6254   -0.7348    0.9440 H         1 <0>         0.0995
     32 H6         -2.7887   -1.0936    4.4127 H         1 <0>         0.1696
     33 H7         -5.2813   -2.0410    1.2323 H         1 <0>         0.1831
     34 H8         -4.1690   -1.9255   -2.8347 H         1 <0>         0.4302
     35 H9         -4.1501   -2.0102   -4.5126 H         1 <0>         0.4214
     36 H10        -0.5023   -1.8619    4.5282 H         1 <0>         0.4113
     37 H11         1.3765    0.3743    4.5523 H         1 <0>         0.1142
     38 H12         2.2697   -2.4838    3.9514 H         1 <0>         0.0864
     39 H13         2.3808   -1.0911    2.8463 H         1 <0>         0.0977
     40 H14         4.5492   -1.5519    4.0097 H         1 <0>         0.1184
     41 H15         3.9000    0.0580    4.4071 H         1 <0>         0.0931
     42 H16         3.5835   -2.4591    6.1049 H         1 <0>         0.1331
     43 H17         4.6932   -1.1107    6.4462 H         1 <0>         0.1390
     44 H18         2.6859   -0.8707    7.6680 H         1 <0>         0.4380
     45 H19         0.5565   -0.5920    6.6843 H         1 <0>         0.1422
     46 H20         1.2544   -2.1671    6.2389 H         1 <0>         0.1383
     47 H21         2.7711    0.3261    6.5406 H         1 <0>         0.4314
@<TRIPOS>BOND
     1    1    2 1
     2    1   27 1
     3    1   28 1
     4    1   29 1
     5    2    3 1
     6    2   30 1
     7    2   31 1
     8    3   11 1
     9    3    4 1
    10    4    9 ar
    11    4    5 ar
    12    5    6 ar
    13    5   18 1
    14    6    7 ar
    15    6   32 1
    16    7    8 ar
    17    8    9 ar
    18    8   33 1
    19    9   10 1
    20   10   11 2
    21   11   12 1
    22   12   16 2
    23   12   13 1
    24   13   14 2
    25   13   17 1
    26   14   15 1
    27   15   16 1
    28   17   34 1
    29   17   35 1
    30   18   19 2
    31   18   20 am
    32   20   21 1
    33   20   36 1
    34   21   26 1
    35   21   22 1
    36   21   37 1
    37   22   23 1
    38   22   38 1
    39   22   39 1
    40   23   24 1
    41   23   40 1
    42   23   41 1
    43   24   25 1
    44   24   42 1
    45   24   43 1
    46   25   26 1
    47   25   44 1
    48   25   47 1
    49   26   45 1
    50   26   46 1
@<TRIPOS>MOLECULE
CHEMBL493067__1
   47    50     0     0     0
SMALL
USER_CHARGES

@<TRIPOS>ATOM
      1 C1          0.2347    1.0378   -0.2131 C.3       1 <0>        -0.1582
      2 C2          0.1598   -0.4763   -0.0060 C.3       1 <0>         0.1016
      3 N1         -1.2429   -0.8987    0.0059 N.pl3     1 <0>        -0.4489
      4 C3         -2.0300   -1.0674    1.1129 C.ar      1 <0>         0.1362
      5 C4         -1.8429   -0.9254    2.4975 C.ar      1 <0>        -0.1910
      6 C5         -2.9158   -1.1963    3.3451 C.ar      1 <0>         0.1545
      7 N2         -4.0836   -1.5785    2.8641 N.ar      1 <0>        -0.4832
      8 C6         -4.3066   -1.7255    1.5741 C.ar      1 <0>         0.2268
      9 C7         -3.2943   -1.4775    0.6443 C.ar      1 <0>        -0.0065
     10 N3         -3.2166   -1.5376   -0.7055 N.2       1 <0>        -0.4326
     11 C8         -2.0124   -1.1927   -1.0900 C.2       1 <0>         0.3381
     12 C9         -1.5514   -1.1333   -2.4946 C.2       1 <0>         0.1291
     13 C10        -2.3622   -1.4386   -3.6801 C.2       1 <0>         0.3637
     14 N4         -1.6174   -1.2761   -4.7388 N.2       1 <0>        -0.3430
     15 O1         -0.3299   -0.8711   -4.3090 O.3       1 <0>         0.0494
     16 N5         -0.3529   -0.7943   -2.8947 N.2       1 <0>        -0.2460
     17 N6         -3.6935   -1.8334   -3.6752 N.pl3     1 <0>        -0.8006
     18 C11        -0.5400   -0.4994    3.0427 C.2       1 <0>         0.5773
     19 O2          0.0647    0.4195    2.5247 O.2       1 <0>        -0.5079
     20 N7         -0.0199   -1.1288    4.1150 N.am      1 <0>        -0.7227
     21 C12         1.2740   -0.7058    4.6564 C.3       1 <0>         0.1289
     22 C13         1.0652    0.4570    5.6307 C.3       1 <0>        -0.1526
     23 C14         2.4126    0.8397    6.2497 C.3       1 <0>        -0.1444
     24 C15         3.0208   -0.3871    6.9328 C.3       1 <0>        -0.0111
     25 N8          3.2201   -1.4535    5.9441 N.4       1 <0>        -0.4994
     26 C16         1.9244   -1.8754    5.3985 C.3       1 <0>        -0.0195
     27 H1          1.2784    1.3521   -0.2220 H         1 <0>         0.0810
     28 H2         -0.2312    1.2980   -1.1635 H         1 <0>         0.0581
     29 H3         -0.2897    1.5419    0.5987 H         1 <0>         0.0756
     30 H4          0.6842   -0.9804   -0.8178 H         1 <0>         0.1008
     31 H5          0.6257   -0.7365    0.9444 H         1 <0>         0.0988
     32 H6         -2.7891   -1.0921    4.4126 H         1 <0>         0.1702
     33 H7         -5.2813   -2.0408    1.2323 H         1 <0>         0.1831
     34 H8         -4.1681   -1.9284   -2.8346 H         1 <0>         0.4302
     35 H9         -4.1489   -2.0142   -4.5123 H         1 <0>         0.4215
     36 H10        -0.5023   -1.8619    4.5282 H         1 <0>         0.4113
     37 H11         1.9229   -0.3862    3.8409 H         1 <0>         0.1117
     38 H12         0.6542    1.3125    5.0946 H         1 <0>         0.1014
     39 H13         0.3754    0.1533    6.4182 H         1 <0>         0.0875
     40 H14         3.0854    1.1919    5.4678 H         1 <0>         0.0921
     41 H15         2.2638    1.6297    6.9858 H         1 <0>         0.1187
     42 H16         3.9802   -0.1180    7.3747 H         1 <0>         0.1387
     43 H17         2.3474   -0.7383    7.7146 H         1 <0>         0.1336
     44 H18         3.8040   -1.1119    5.1955 H         1 <0>         0.4309
     45 H19         1.2743   -2.1948    6.2130 H         1 <0>         0.1392
     46 H20         2.0743   -2.7051    4.7077 H         1 <0>         0.1400
     47 H21         3.6701   -2.2409    6.3863 H         1 <0>         0.4378
@<TRIPOS>BOND
     1    1    2 1
     2    1   27 1
     3    1   28 1
     4    1   29 1
     5    2    3 1
     6    2   30 1
     7    2   31 1
     8    3   11 1
     9    3    4 1
    10    4    9 ar
    11    4    5 ar
    12    5    6 ar
    13    5   18 1
    14    6    7 ar
    15    6   32 1
    16    7    8 ar
    17    8    9 ar
    18    8   33 1
    19    9   10 1
    20   10   11 2
    21   11   12 1
    22   12   16 2
    23   12   13 1
    24   13   14 2
    25   13   17 1
    26   14   15 1
    27   15   16 1
    28   17   34 1
    29   17   35 1
    30   18   19 2
    31   18   20 am
    32   20   21 1
    33   20   36 1
    34   21   26 1
    35   21   22 1
    36   21   37 1
    37   22   23 1
    38   22   38 1
    39   22   39 1
    40   23   24 1
    41   23   40 1
    42   23   41 1
    43   24   25 1
    44   24   42 1
    45   24   43 1
    46   25   26 1
    47   25   44 1
    48   25   47 1
    49   26   45 1
    50   26   46 1
@<TRIPOS>MOLECULE
CHEMBL521823
   47    50     0     0     0
SMALL
USER_CHARGES

@<TRIPOS>ATOM
      1 C1         -0.0187    1.5258    0.0104 C.3       1 <0>        -0.1653
      2 C2          0.0021   -0.0041    0.0020 C.3       1 <0>         0.1007
      3 N1          0.6878   -0.4765   -1.2033 N.pl3     1 <0>        -0.4487
      4 C3          0.1067   -0.7446   -2.4209 C.ar      1 <0>         0.0711
      5 C4          1.1470   -1.1692   -3.2709 C.ar      1 <0>         0.0367
      6 C5          0.8367   -1.5125   -4.5899 C.ar      1 <0>         0.1620
      7 N2         -0.4036   -1.4383   -5.0224 N.ar      1 <0>        -0.4448
      8 C6         -1.4022   -1.0437   -4.2500 C.ar      1 <0>         0.0175
      9 C7         -1.1894   -0.6846   -2.9314 C.ar      1 <0>         0.0913
     10 O1         -2.2245   -0.2804   -2.1477 O.3       1 <0>        -0.3130
     11 C8         -3.5200   -0.2479   -2.7500 C.3       1 <0>         0.0588
     12 C9         -4.5485    0.2282   -1.7222 C.3       1 <0>        -0.0992
     13 C10        -4.6615   -0.8028   -0.5955 C.3       1 <0>        -0.1443
     14 C11        -5.7478   -0.3597    0.3869 C.3       1 <0>        -0.0072
     15 N3         -7.0334   -0.2555   -0.3138 N.4       1 <0>        -0.5066
     16 C12        -6.9538    0.7823   -1.3488 C.3       1 <0>        -0.0042
     17 C13        -5.9139    0.3831   -2.3980 C.3       1 <0>        -0.1436
     18 N4          2.2890   -1.1404   -2.5463 N.2       1 <0>        -0.4403
     19 C14         2.0280   -0.7281   -1.3300 C.2       1 <0>         0.3397
     20 C15         3.0304   -0.5627   -0.2541 C.2       1 <0>         0.1319
     21 C16         4.4707   -0.8215   -0.3726 C.2       1 <0>         0.3637
     22 N5          5.0293   -0.5645    0.7780 N.2       1 <0>        -0.3437
     23 O2          4.0147   -0.1404    1.6708 O.3       1 <0>         0.0481
     24 N6          2.7867   -0.1552    0.9648 N.2       1 <0>        -0.2503
     25 N7          5.1263   -1.2642   -1.5140 N.pl3     1 <0>        -0.8002
     26 H1          1.0039    1.9031    0.0027 H         1 <0>         0.0650
     27 H2         -0.5459    1.8868   -0.8726 H         1 <0>         0.0631
     28 H3         -0.5289    1.8773    0.9072 H         1 <0>         0.0840
     29 H4          0.5293   -0.3651    0.8851 H         1 <0>         0.1076
     30 H5         -1.0205   -0.3814    0.0098 H         1 <0>         0.0991
     31 H6          1.6196   -1.8401   -5.2579 H         1 <0>         0.1789
     32 H7         -2.4020   -1.0012   -4.6563 H         1 <0>         0.1650
     33 H8         -3.5095    0.4372   -3.5977 H         1 <0>         0.0785
     34 H9         -3.7859   -1.2475   -3.0940 H         1 <0>         0.0739
     35 H10        -4.2348    1.1873   -1.3101 H         1 <0>         0.1023
     36 H11        -4.9247   -1.7736   -1.0155 H         1 <0>         0.0911
     37 H12        -3.7075   -0.8778   -0.0736 H         1 <0>         0.1160
     38 H13        -5.8308   -1.0914    1.1905 H         1 <0>         0.1356
     39 H14        -5.4836    0.6110    0.8065 H         1 <0>         0.1319
     40 H15        -7.2537   -1.1414   -0.7436 H         1 <0>         0.4287
     41 H16        -7.9272    0.8936   -1.8266 H         1 <0>         0.1379
     42 H17        -6.6639    1.7286   -0.8922 H         1 <0>         0.1326
     43 H18        -5.8551    1.1557   -3.1645 H         1 <0>         0.1181
     44 H19        -6.2031   -0.5631   -2.8554 H         1 <0>         0.0947
     45 H20         4.6250   -1.4295   -2.3278 H         1 <0>         0.4309
     46 H21         6.0854   -1.4080   -1.4974 H         1 <0>         0.4213
     47 H22        -7.7570   -0.0153    0.3470 H         1 <0>         0.4339
@<TRIPOS>BOND
     1    1    2 1
     2    1   26 1
     3    1   27 1
     4    1   28 1
     5    2    3 1
     6    2   29 1
     7    2   30 1
     8    3   19 1
     9    3    4 1
    10    4    9 ar
    11    4    5 ar
    12    5    6 ar
    13    5   18 1
    14    6    7 ar
    15    6   31 1
    16    7    8 ar
    17    8    9 ar
    18    8   32 1
    19    9   10 1
    20   10   11 1
    21   11   12 1
    22   11   33 1
    23   11   34 1
    24   12   17 1
    25   12   13 1
    26   12   35 1
    27   13   14 1
    28   13   36 1
    29   13   37 1
    30   14   15 1
    31   14   38 1
    32   14   39 1
    33   15   16 1
    34   15   40 1
    35   15   47 1
    36   16   17 1
    37   16   41 1
    38   16   42 1
    39   17   43 1
    40   17   44 1
    41   18   19 2
    42   19   20 1
    43   20   24 2
    44   20   21 1
    45   21   22 2
    46   21   25 1
    47   22   23 1
    48   23   24 1
    49   25   45 1
    50   25   46 1
@<TRIPOS>MOLECULE
CHEMBL521823__1
   48    51     0     0     0
SMALL
USER_CHARGES

@<TRIPOS>ATOM
      1 C1         -0.0187    1.5258    0.0104 C.3       1 <0>        -0.1702
      2 C2          0.0021   -0.0041    0.0020 C.3       1 <0>         0.0855
      3 N1          0.6878   -0.4765   -1.2033 N.pl3     1 <0>        -0.4262
      4 C3          0.1067   -0.7446   -2.4209 C.ar      1 <0>         0.1015
      5 C4          1.1470   -1.1692   -3.2709 C.ar      1 <0>         0.0614
      6 C5          0.8367   -1.5125   -4.5899 C.ar      1 <0>         0.2211
      7 N2         -0.4036   -1.4383   -5.0224 N.ar      1 <0>        -0.4070
      8 C6         -1.4022   -1.0433   -4.2501 C.ar      1 <0>        -0.0233
      9 C7         -1.1894   -0.6846   -2.9314 C.ar      1 <0>         0.1811
     10 O1         -2.2245   -0.2804   -2.1477 O.3       1 <0>        -0.2850
     11 C8         -3.5200   -0.2479   -2.7500 C.3       1 <0>         0.0463
     12 C9         -4.5485    0.2282   -1.7222 C.3       1 <0>        -0.1014
     13 C10        -4.6615   -0.8028   -0.5955 C.3       1 <0>        -0.1462
     14 C11        -5.7478   -0.3597    0.3869 C.3       1 <0>        -0.0083
     15 N3         -7.0334   -0.2555   -0.3138 N.4       1 <0>        -0.5077
     16 C12        -6.9538    0.7823   -1.3488 C.3       1 <0>        -0.0056
     17 C13        -5.9139    0.3831   -2.3980 C.3       1 <0>        -0.1433
     18 N4          2.2890   -1.1404   -2.5463 N.2       1 <0>        -0.4217
     19 C14         2.0280   -0.7281   -1.3300 C.2       1 <0>         0.3972
     20 C15         3.0304   -0.5627   -0.2541 C.2       1 <0>         0.1029
     21 C16         4.4707   -0.8215   -0.3726 C.2       1 <0>         0.3638
     22 N5          5.0293   -0.5645    0.7780 N.2       1 <0>        -0.3244
     23 O2          4.0147   -0.1404    1.6708 O.3       1 <0>         0.0737
     24 N6          2.7867   -0.1552    0.9648 N.2       1 <0>        -0.2316
     25 N7          5.1263   -1.2642   -1.5140 N.pl3     1 <0>        -0.8002
     26 H1          1.0039    1.9031    0.0027 H         1 <0>         0.0722
     27 H2         -0.5459    1.8868   -0.8726 H         1 <0>         0.0660
     28 H3         -0.5289    1.8773    0.9072 H         1 <0>         0.0990
     29 H4          0.5293   -0.3651    0.8851 H         1 <0>         0.1243
     30 H5         -1.0205   -0.3814    0.0098 H         1 <0>         0.1124
     31 H6          1.6196   -1.8401   -5.2579 H         1 <0>         0.2319
     32 H7         -2.4018   -1.0004   -4.6565 H         1 <0>         0.2109
     33 H8         -3.5095    0.4372   -3.5977 H         1 <0>         0.0921
     34 H9         -3.7859   -1.2475   -3.0940 H         1 <0>         0.0874
     35 H10        -4.2348    1.1873   -1.3101 H         1 <0>         0.1090
     36 H11        -4.9247   -1.7736   -1.0155 H         1 <0>         0.0931
     37 H12        -3.7075   -0.8778   -0.0736 H         1 <0>         0.1149
     38 H13        -5.8308   -1.0914    1.1905 H         1 <0>         0.1393
     39 H14        -5.4836    0.6110    0.8065 H         1 <0>         0.1343
     40 H15        -7.2537   -1.1414   -0.7436 H         1 <0>         0.4295
     41 H16        -7.9272    0.8936   -1.8266 H         1 <0>         0.1422
     42 H17        -6.6639    1.7286   -0.8922 H         1 <0>         0.1352
     43 H18        -5.8551    1.1557   -3.1645 H         1 <0>         0.1200
     44 H19        -6.2031   -0.5631   -2.8554 H         1 <0>         0.0962
     45 H20         4.6250   -1.4295   -2.3278 H         1 <0>         0.4272
     46 H21         6.0854   -1.4080   -1.4974 H         1 <0>         0.4274
     47 H22        -7.7570   -0.0153    0.3470 H         1 <0>         0.4388
     48 H23        -0.5928   -1.6821   -5.9420 H         1 <0>         0.4646
@<TRIPOS>BOND
     1    1    2 1
     2    1   26 1
     3    1   27 1
     4    1   28 1
     5    2    3 1
     6    2   29 1
     7    2   30 1
     8    3   19 1
     9    3    4 1
    10    4    9 ar
    11    4    5 ar
    12    5    6 ar
    13    5   18 1
    14    6    7 ar
    15    6   31 1
    16    7    8 ar
    17    7   48 1
    18    8    9 ar
    19    8   32 1
    20    9   10 1
    21   10   11 1
    22   11   12 1
    23   11   33 1
    24   11   34 1
    25   12   17 1
    26   12   13 1
    27   12   35 1
    28   13   14 1
    29   13   36 1
    30   13   37 1
    31   14   15 1
    32   14   38 1
    33   14   39 1
    34   15   16 1
    35   15   40 1
    36   15   47 1
    37   16   17 1
    38   16   41 1
    39   16   42 1
    40   17   43 1
    41   17   44 1
    42   18   19 2
    43   19   20 1
    44   20   24 2
    45   20   21 1
    46   21   22 2
    47   21   25 1
    48   22   23 1
    49   23   24 1
    50   25   45 1
    51   25   46 1
@<TRIPOS>MOLECULE
CHEMBL523695
   44    47     0     0     0
SMALL
USER_CHARGES

@<TRIPOS>ATOM
      1 C1         -0.4399    2.1750    0.4936 C.3       1 <0>        -0.1610
      2 C2         -0.2911    0.6892    0.1600 C.3       1 <0>         0.1018
      3 N1         -1.6130    0.0580    0.1421 N.pl3     1 <0>        -0.4502
      4 C3         -2.2063   -0.6117    1.1779 C.ar      1 <0>         0.1334
      5 C4         -1.8430   -0.9253    2.4977 C.ar      1 <0>        -0.1850
      6 C5         -2.7410   -1.6484    3.2811 C.ar      1 <0>         0.1515
      7 N2         -3.9078   -2.0332    2.7995 N.ar      1 <0>        -0.4818
      8 C6         -4.2922   -1.7628    1.5689 C.ar      1 <0>         0.2250
      9 C7         -3.4626   -1.0427    0.7064 C.ar      1 <0>        -0.0039
     10 N3         -3.5714   -0.6206   -0.5749 N.2       1 <0>        -0.4327
     11 C8         -2.4877    0.0336   -0.9133 C.2       1 <0>         0.3406
     12 C9         -2.2432    0.6497   -2.2360 C.2       1 <0>         0.1280
     13 C10        -3.1697    0.6387   -3.3751 C.2       1 <0>         0.3638
     14 N4         -2.6103    1.2789   -4.3646 N.2       1 <0>        -0.3427
     15 O1         -1.3362    1.7225   -3.9329 O.3       1 <0>         0.0502
     16 N5         -1.1666    1.3029   -2.5905 N.2       1 <0>        -0.2451
     17 N6         -4.4261    0.0475   -3.3957 N.pl3     1 <0>        -0.8007
     18 C11        -0.5400   -0.4994    3.0427 C.2       1 <0>         0.5917
     19 O2         -0.1888    0.6604    2.9425 O.2       1 <0>        -0.4998
     20 N7          0.2613   -1.3959    3.6516 N.am      1 <0>        -0.6188
     21 C12         0.0139   -2.8421    3.7446 C.3       1 <0>         0.0936
     22 C13         1.1795   -3.4557    4.5485 C.3       1 <0>        -0.1468
     23 C14         1.7261   -2.2436    5.3481 C.3       1 <0>         0.0054
     24 H1          1.1390   -2.0741    6.2507 H         1 <0>         0.1644
     25 C15         1.5342   -1.0895    4.3293 C.3       1 <0>         0.0933
     26 N8          3.1469   -2.4253    5.6741 N.4       1 <0>        -0.6274
     27 H2          0.5436    2.6446    0.5069 H         1 <0>         0.0832
     28 H3         -1.0622    2.6563   -0.2608 H         1 <0>         0.0604
     29 H4         -0.9072    2.2825    1.4725 H         1 <0>         0.0754
     30 H5          0.1761    0.5817   -0.8189 H         1 <0>         0.1033
     31 H6          0.3312    0.2080    0.9144 H         1 <0>         0.0948
     32 H7         -2.4775   -1.8981    4.2982 H         1 <0>         0.1688
     33 H8         -5.2580   -2.1010    1.2237 H         1 <0>         0.1836
     34 H9         -4.7599   -0.4097   -2.6081 H         1 <0>         0.4301
     35 H10        -4.9697    0.0916   -4.1978 H         1 <0>         0.4215
     36 H11        -0.9288   -3.0245    4.2606 H         1 <0>         0.0938
     37 H12        -0.0175   -3.2778    2.7459 H         1 <0>         0.0916
     38 H13         0.8166   -4.2309    5.2234 H         1 <0>         0.1194
     39 H14         1.9431   -3.8521    3.8792 H         1 <0>         0.1031
     40 H15         2.3531   -1.0753    3.6100 H         1 <0>         0.0909
     41 H16         1.4672   -0.1333    4.8481 H         1 <0>         0.1112
     42 H17         3.6786   -2.5166    4.8214 H         1 <0>         0.4361
     43 H18         3.4779   -1.6256    6.1928 H         1 <0>         0.4423
     44 H19         3.2602   -3.2584    6.2319 H         1 <0>         0.4435
@<TRIPOS>BOND
     1    1    2 1
     2    1   27 1
     3    1   28 1
     4    1   29 1
     5    2    3 1
     6    2   30 1
     7    2   31 1
     8    3   11 1
     9    3    4 1
    10    4    9 ar
    11    4    5 ar
    12    5    6 ar
    13    5   18 1
    14    6    7 ar
    15    6   32 1
    16    7    8 ar
    17    8    9 ar
    18    8   33 1
    19    9   10 1
    20   10   11 2
    21   11   12 1
    22   12   16 2
    23   12   13 1
    24   13   14 2
    25   13   17 1
    26   14   15 1
    27   15   16 1
    28   17   34 1
    29   17   35 1
    30   18   19 2
    31   18   20 am
    32   20   25 1
    33   20   21 1
    34   21   22 1
    35   21   36 1
    36   21   37 1
    37   22   23 1
    38   22   38 1
    39   22   39 1
    40   23   24 1
    41   23   25 1
    42   23   26 1
    43   25   40 1
    44   25   41 1
    45   26   42 1
    46   26   43 1
    47   26   44 1
@<TRIPOS>MOLECULE
CHEMBL610785
   39    41     0     0     0
SMALL
USER_CHARGES

@<TRIPOS>ATOM
      1 C1         -0.5232    1.3352   -0.0610 C.3       1 <0>        -0.1758
      2 C2          0.7748    2.1148   -0.2263 C.3       1 <0>        -0.0113
      3 N1          1.2045    2.4086    1.1166 N.4       1 <0>        -0.5088
      4 C3          2.2565    1.4475    1.5434 C.3       1 <0>        -0.0429
      5 C4          1.9438    0.0243    1.0315 C.3       1 <0>         0.0823
      6 N2          0.5770   -0.4098    1.1258 N.pl3     1 <0>        -1.0069
      7 C5         -0.3527   -0.1211   -0.0220 C.3       1 <0>         0.1068
      8 S1          0.0361   -1.2118    2.4699 S.o2      1 <0>         2.6895
      9 O1         -1.1674   -1.8675    2.0947 O.2       1 <0>        -0.9287
     10 O2          1.1522   -1.9131    3.0009 O.2       1 <0>        -0.9263
     11 C6         -0.4056    0.0082    3.6620 C.2       1 <0>        -0.7484
     12 C7         -1.7144    0.2619    3.9380 C.2       1 <0>         0.1227
     13 C8         -2.0787    1.2246    4.9075 C.2       1 <0>        -0.1849
     14 C9         -1.1847    2.0777    5.4147 C.2       1 <0>        -0.0208
     15 C10         0.2379    2.0507    4.9649 C.3       1 <0>        -0.1306
     16 C11         0.5857    0.7274    4.3442 C.2       1 <0>         0.0432
     17 C12         1.8712    0.2448    4.4499 C.2       1 <0>        -0.2647
     18 C13         2.7775    0.8627    5.3090 C.2       1 <0>         0.2823
     19 N3          2.4229    1.8645    6.0877 N.2       1 <0>        -0.5620
     20 C14         1.2195    2.4369    6.0186 C.2       1 <0>         0.5010
     21 O3          0.9127    3.2784    6.8401 O.2       1 <0>        -0.4227
     22 H1         -1.0019    1.6526    0.8654 H         1 <0>         0.0835
     23 H2         -1.1845    1.5841   -0.8910 H         1 <0>         0.1274
     24 H3          1.5201    1.5058   -0.7380 H         1 <0>         0.1453
     25 H4          0.5948    3.0380   -0.7771 H         1 <0>         0.1444
     26 H5          1.5750    3.3465    1.1511 H         1 <0>         0.4315
     27 H6          3.2185    1.7687    1.1440 H         1 <0>         0.1575
     28 H7          2.3083    1.4333    2.6321 H         1 <0>         0.1266
     29 H8          2.2433   -0.0307   -0.0151 H         1 <0>         0.1156
     30 H9          2.5600   -0.6785    1.5922 H         1 <0>         0.1334
     31 H10        -1.3146   -0.6058    0.1450 H         1 <0>         0.1270
     32 H11         0.0866   -0.4713   -0.9561 H         1 <0>         0.1091
     33 H12        -2.4850   -0.2792    3.4089 H         1 <0>         0.1623
     34 H13        -3.1034    1.2714    5.2454 H         1 <0>         0.1560
     35 H14        -1.4953    2.7959    6.1591 H         1 <0>         0.1567
     36 H15         0.3271    2.7908    4.1697 H         1 <0>         0.1426
     37 H16         2.1764   -0.6120    3.8676 H         1 <0>         0.1854
     38 H17         3.7982    0.5107    5.3375 H         1 <0>         0.1835
     39 H18         0.4158    2.3402    1.7422 H         1 <0>         0.4191
@<TRIPOS>BOND
     1    1    7 1
     2    1    2 1
     3    1   22 1
     4    1   23 1
     5    2    3 1
     6    2   24 1
     7    2   25 1
     8    3    4 1
     9    3   26 1
    10    3   39 1
    11    4    5 1
    12    4   27 1
    13    4   28 1
    14    5    6 1
    15    5   29 1
    16    5   30 1
    17    6    7 1
    18    6    8 1
    19    7   31 1
    20    7   32 1
    21    8    9 2
    22    8   10 2
    23    8   11 1
    24   11   16 1
    25   11   12 2
    26   12   13 1
    27   12   33 1
    28   13   14 2
    29   13   34 1
    30   14   15 1
    31   14   35 1
    32   15   20 1
    33   15   16 1
    34   15   36 1
    35   16   17 2
    36   17   18 1
    37   17   37 1
    38   18   19 2
    39   18   38 1
    40   19   20 1
    41   20   21 2
@<TRIPOS>MOLECULE
CHEMBL610785__1
   39    41     0     0     0
SMALL
USER_CHARGES

@<TRIPOS>ATOM
      1 C1         -0.2277    1.4070   -0.0357 C.3       1 <0>        -0.1796
      2 C2          1.1233    2.1058   -0.1173 C.3       1 <0>        -0.0112
      3 N1          1.4979    2.3496    1.2519 N.4       1 <0>        -0.5094
      4 C3          2.4638    1.3172    1.7141 C.3       1 <0>        -0.0314
      5 C4          2.0911   -0.0749    1.1582 C.3       1 <0>         0.0827
      6 N2          0.6969   -0.4234    1.1722 N.pl3     1 <0>        -1.0072
      7 C5         -0.1503   -0.0576   -0.0167 C.3       1 <0>         0.1059
      8 S1          0.0361   -1.2118    2.4699 S.o2      1 <0>         2.6894
      9 O1         -1.1171   -1.8890    1.9896 O.2       1 <0>        -0.9230
     10 O2          1.1027   -1.8902    3.1191 O.2       1 <0>        -0.9335
     11 C6         -0.5345    0.0203    3.5928 C.2       1 <0>        -0.7463
     12 C7          0.0493    0.1719    4.8143 C.2       1 <0>         0.1153
     13 C8         -0.4314    1.1330    5.7334 C.2       1 <0>        -0.1878
     14 C9         -1.2823    2.0949    5.3598 C.2       1 <0>        -0.0199
     15 C10        -1.7232    2.1943    3.9347 C.3       1 <0>        -0.1309
     16 C11        -1.5963    0.8699    3.2451 C.2       1 <0>         0.0418
     17 C12        -2.5242    0.5012    2.2988 C.2       1 <0>        -0.2463
     18 C13        -3.6697    1.2710    2.1080 C.2       1 <0>         0.2884
     19 N3         -3.9238    2.3314    2.8476 N.2       1 <0>        -0.5645
     20 C14        -3.0780    2.7875    3.7569 C.2       1 <0>         0.5036
     21 O3         -3.4086    3.7265    4.4540 O.2       1 <0>        -0.4283
     22 H1         -0.7346    1.7385    0.8705 H         1 <0>         0.0788
     23 H2         -0.8269    1.7108   -0.8940 H         1 <0>         0.1298
     24 H3          1.8556    1.4595   -0.6012 H         1 <0>         0.1461
     25 H4          1.0307    3.0475   -0.6582 H         1 <0>         0.1445
     26 H5          1.9236    3.2616    1.3245 H         1 <0>         0.4319
     27 H6          3.4639    1.5835    1.3720 H         1 <0>         0.1545
     28 H7          2.4563    1.2816    2.8035 H         1 <0>         0.1314
     29 H8          2.4422   -0.1313    0.1279 H         1 <0>         0.1135
     30 H9          2.6316   -0.8243    1.7364 H         1 <0>         0.1335
     31 H10        -1.1480   -0.4833    0.0900 H         1 <0>         0.1251
     32 H11         0.3157   -0.4192   -0.9333 H         1 <0>         0.1112
     33 H12         0.8899   -0.4501    5.0842 H         1 <0>         0.1615
     34 H13        -0.1040    1.0890    6.7617 H         1 <0>         0.1552
     35 H14        -1.6519    2.8008    6.0888 H         1 <0>         0.1569
     36 H15        -1.0200    2.8600    3.4342 H         1 <0>         0.1423
     37 H16        -2.3644   -0.3854    1.7031 H         1 <0>         0.1751
     38 H17        -4.3678    0.9913    1.3329 H         1 <0>         0.1829
     39 H18         0.6742    2.3207    1.8339 H         1 <0>         0.4179
@<TRIPOS>BOND
     1    1    7 1
     2    1    2 1
     3    1   22 1
     4    1   23 1
     5    2    3 1
     6    2   24 1
     7    2   25 1
     8    3    4 1
     9    3   26 1
    10    3   39 1
    11    4    5 1
    12    4   27 1
    13    4   28 1
    14    5    6 1
    15    5   29 1
    16    5   30 1
    17    6    7 1
    18    6    8 1
    19    7   31 1
    20    7   32 1
    21    8    9 2
    22    8   10 2
    23    8   11 1
    24   11   16 1
    25   11   12 2
    26   12   13 1
    27   12   33 1
    28   13   14 2
    29   13   34 1
    30   14   15 1
    31   14   35 1
    32   15   20 1
    33   15   16 1
    34   15   36 1
    35   16   17 2
    36   17   18 1
    37   17   37 1
    38   18   19 2
    39   18   38 1
    40   19   20 1
    41   20   21 2
@<TRIPOS>MOLECULE
CHEMBL483574
   54    58     0     0     0
SMALL
USER_CHARGES

@<TRIPOS>ATOM
      1 C1         -0.5282    1.7045   -0.6715 C.3       1 <0>        -0.1045
      2 C2         -0.3806    0.2689   -0.2376 C.2       1 <0>         0.3094
      3 C3         -1.4969   -0.5740   -0.2336 C.2       1 <0>        -0.4553
      4 C4         -1.2703   -2.0060    0.2157 C.3       1 <0>         0.2206
      5 N1          0.1073   -2.3588    0.6019 N.2       1 <0>        -0.5938
      6 C5          1.0338   -1.4359    0.5358 C.2       1 <0>         0.4069
      7 N2          0.7969   -0.1842    0.1293 N.2       1 <0>        -0.6637
      8 C6          2.4167   -1.7986    0.9264 C.ar      1 <0>        -0.1031
      9 C7          3.4414   -0.8454    0.8785 C.ar      1 <0>        -0.0012
     10 C8          4.7136   -1.2303    1.2519 C.ar      1 <0>        -0.2026
     11 C9          4.9344   -2.5415    1.6602 C.ar      1 <0>         0.3118
     12 N3          3.9440   -3.4188    1.6939 N.ar      1 <0>        -0.5477
     13 C10         2.7147   -3.0909    1.3518 C.ar      1 <0>         0.1744
     14 O1          6.1812   -2.9262    2.0282 O.3       1 <0>        -0.3125
     15 C11         6.3463   -4.2851    2.4380 C.3       1 <0>         0.0416
     16 C12        -1.6916   -2.9210   -0.9051 C.ar      1 <0>        -0.0670
     17 C13        -2.9123   -3.5671   -0.8480 C.ar      1 <0>        -0.0412
     18 C14        -3.2995   -4.4064   -1.8755 C.ar      1 <0>        -0.1296
     19 C15        -2.4658   -4.6006   -2.9628 C.ar      1 <0>        -0.0208
     20 C16        -1.2445   -3.9547   -3.0217 C.ar      1 <0>        -0.1641
     21 C17        -0.8586   -3.1101   -1.9947 C.ar      1 <0>         0.1225
     22 F1          0.3322   -2.4748   -2.0533 F         1 <0>        -0.1289
     23 Cl1        -2.9530   -5.6556   -4.2526 Cl        1 <0>        -0.0823
     24 C18        -2.7429   -0.1256   -0.6187 C.2       1 <0>         0.5343
     25 O2         -3.8205   -0.9256   -0.4797 O.3       1 <0>        -0.6384
     26 N4         -2.8863    1.1302   -1.1416 N.pl3     1 <0>        -0.7037
     27 C19        -3.7377    2.0532   -0.5226 C.ar      1 <0>         0.1900
     28 C20        -4.3346    1.7368    0.6987 C.ar      1 <0>        -0.0952
     29 C21        -5.1676    2.6225    1.3184 C.ar      1 <0>        -0.1087
     30 C22        -5.4318    3.8591    0.7341 C.ar      1 <0>         0.0829
     31 C23        -4.8351    4.1888   -0.4977 C.ar      1 <0>        -0.1384
     32 C24        -3.9783    3.2742   -1.1206 C.ar      1 <0>        -0.1342
     33 C25        -5.3047    5.5286   -0.8361 C.2       1 <0>         0.0638
     34 N5         -6.0976    5.9254    0.1180 N.2       1 <0>        -0.2570
     35 N6         -6.2029    4.9338    1.0987 N.pl3     1 <0>        -0.5150
     36 H1         -6.7359    4.9959    1.9068 H         1 <0>         0.4349
     37 H2          0.4218    2.2229   -0.5414 H         1 <0>         0.0631
     38 H3         -0.8200    1.7387   -1.7211 H         1 <0>         0.0647
     39 H4         -1.2931    2.1903   -0.0657 H         1 <0>         0.0791
     40 H5         -1.9215   -2.2010    1.0677 H         1 <0>         0.0581
     41 H6          3.2414    0.1661    0.5569 H         1 <0>         0.1535
     42 H7          5.5281   -0.5216    1.2269 H         1 <0>         0.1381
     43 H8          1.9313   -3.8329    1.3969 H         1 <0>         0.1697
     44 H9          7.3885   -4.4600    2.7051 H         1 <0>         0.0909
     45 H10         5.7117   -4.4839    3.3015 H         1 <0>         0.0571
     46 H11         6.0648   -4.9481    1.6199 H         1 <0>         0.0571
     47 H12        -3.5636   -3.4162    0.0001 H         1 <0>         0.1387
     48 H13        -4.2531   -4.9112   -1.8296 H         1 <0>         0.1293
     49 H14        -0.5936   -4.1061   -3.8702 H         1 <0>         0.1326
     50 H15        -2.3981    1.3812   -1.9414 H         1 <0>         0.4051
     51 H16        -4.1353    0.7800    1.1583 H         1 <0>         0.1386
     52 H17        -5.6229    2.3642    2.2631 H         1 <0>         0.1228
     53 H18        -3.5121    3.5199   -2.0633 H         1 <0>         0.1254
     54 H19        -5.0416    6.0907   -1.7200 H         1 <0>         0.1918
@<TRIPOS>BOND
     1    1    2 1
     2    1   37 1
     3    1   38 1
     4    1   39 1
     5    2    7 2
     6    2    3 1
     7    3    4 1
     8    3   24 2
     9    4    5 1
    10    4   16 1
    11    4   40 1
    12    5    6 2
    13    6    7 1
    14    6    8 1
    15    8   13 ar
    16    8    9 ar
    17    9   10 ar
    18    9   41 1
    19   10   11 ar
    20   10   42 1
    21   11   12 ar
    22   11   14 1
    23   12   13 ar
    24   13   43 1
    25   14   15 1
    26   15   44 1
    27   15   45 1
    28   15   46 1
    29   16   21 ar
    30   16   17 ar
    31   17   18 ar
    32   17   47 1
    33   18   19 ar
    34   18   48 1
    35   19   20 ar
    36   19   23 1
    37   20   21 ar
    38   20   49 1
    39   21   22 1
    40   24   25 1
    41   24   26 1
    42   26   27 1
    43   26   50 1
    44   27   32 ar
    45   27   28 ar
    46   28   29 ar
    47   28   51 1
    48   29   30 ar
    49   29   52 1
    50   30   35 1
    51   30   31 ar
    52   31   32 ar
    53   31   33 1
    54   32   53 1
    55   33   34 2
    56   33   54 1
    57   34   35 1
    58   35   36 1
@<TRIPOS>MOLECULE
CHEMBL483574__1
   56    60     0     0     0
SMALL
USER_CHARGES

@<TRIPOS>ATOM
      1 C1          0.5826    1.0185   -1.1878 C.3       1 <0>        -0.1203
      2 C2          0.3349   -0.4149   -0.7942 C.2       1 <0>         0.2251
      3 C3         -0.9073   -0.8241   -0.4770 C.2       1 <0>        -0.2651
      4 C4         -1.1774   -2.2510   -0.0927 C.3       1 <0>         0.2114
      5 N1          0.0559   -2.9486    0.2494 N.pl3     1 <0>        -0.5813
      6 C5          1.2267   -2.4983   -0.0728 C.cat     1 <0>         0.6002
      7 N2          1.3734   -1.3104   -0.7628 N.pl3     1 <0>        -0.6074
      8 C6          2.4295   -3.2734    0.3012 C.ar      1 <0>        -0.2606
      9 C7          3.5867   -3.2145   -0.4871 C.ar      1 <0>         0.0199
     10 C8          4.6842   -3.9553   -0.0971 C.ar      1 <0>        -0.1789
     11 C9          4.6068   -4.7296    1.0559 C.ar      1 <0>         0.3902
     12 N3          3.4988   -4.7639    1.7792 N.ar      1 <0>        -0.5283
     13 C10         2.4308   -4.0685    1.4459 C.ar      1 <0>         0.2247
     14 O1          5.6810   -5.4597    1.4440 O.3       1 <0>        -0.2824
     15 C11         5.5419   -6.2352    2.6362 C.3       1 <0>         0.0285
     16 C12        -1.8395   -2.9565   -1.2482 C.ar      1 <0>        -0.1861
     17 C13        -1.9156   -2.3395   -2.4827 C.ar      1 <0>        -0.0440
     18 C14        -2.5226   -2.9858   -3.5429 C.ar      1 <0>        -0.1116
     19 C15        -3.0544   -4.2516   -3.3698 C.ar      1 <0>         0.0170
     20 C16        -2.9787   -4.8705   -2.1354 C.ar      1 <0>        -0.1405
     21 C17        -2.3664   -4.2250   -1.0745 C.ar      1 <0>         0.1375
     22 F1         -2.2876   -4.8305    0.1306 F         1 <0>        -0.1256
     23 Cl1        -3.8171   -5.0623   -4.7020 Cl        1 <0>        -0.0240
     24 C18        -1.9757    0.1045   -0.5054 C.2       1 <0>         0.5726
     25 O2         -1.7517    1.2843   -0.7072 O.2       1 <0>        -0.5033
     26 N4         -3.2406   -0.3174   -0.3092 N.am      1 <0>        -0.6528
     27 C19        -4.3114    0.5628   -0.5096 C.ar      1 <0>         0.0976
     28 C20        -4.0983    1.9406   -0.4485 C.ar      1 <0>        -0.0867
     29 C21        -5.1281    2.8152   -0.6412 C.ar      1 <0>        -0.1205
     30 C22        -6.4104    2.3377   -0.9021 C.ar      1 <0>         0.1223
     31 C23        -6.6367    0.9497   -0.9660 C.ar      1 <0>        -0.1618
     32 C24        -5.5712    0.0632   -0.7722 C.ar      1 <0>        -0.0663
     33 C25        -8.0579    0.7778   -1.2502 C.2       1 <0>         0.0748
     34 N5         -8.5921    1.9623   -1.3400 N.2       1 <0>        -0.2388
     35 N6         -7.6188    2.9452   -1.1335 N.pl3     1 <0>        -0.5068
     36 H1         -7.7733    3.9027   -1.1507 H         1 <0>         0.4434
     37 H2          1.6405    1.1562   -1.4116 H         1 <0>         0.0790
     38 H3         -0.0099    1.2606   -2.0701 H         1 <0>         0.1184
     39 H4          0.2965    1.6755   -0.3665 H         1 <0>         0.1254
     40 H5         -1.8478   -2.2686    0.7665 H         1 <0>         0.1408
     41 H6          2.2053   -1.1090   -1.2191 H         1 <0>         0.4530
     42 H7          3.6189   -2.6049   -1.3780 H         1 <0>         0.1590
     43 H8          5.5927   -3.9342   -0.6808 H         1 <0>         0.1712
     44 H9          1.5461   -4.1184    2.0633 H         1 <0>         0.1733
     45 H10         6.4715   -6.7694    2.8326 H         1 <0>         0.1140
     46 H11         5.3177   -5.5757    3.4745 H         1 <0>         0.0719
     47 H12         4.7304   -6.9521    2.5107 H         1 <0>         0.0718
     48 H13        -1.5008   -1.3517   -2.6189 H         1 <0>         0.1460
     49 H14        -2.5821   -2.5026   -4.5069 H         1 <0>         0.1533
     50 H15        -3.3937   -5.8584   -1.9999 H         1 <0>         0.1602
     51 H16        -3.4093   -1.2307   -0.0292 H         1 <0>         0.4067
     52 H17        -3.1073    2.3191   -0.2460 H         1 <0>         0.1710
     53 H18        -4.9487    3.8790   -0.5911 H         1 <0>         0.1331
     54 H19        -5.7341   -1.0032   -0.8236 H         1 <0>         0.1308
     55 H20        -8.5743   -0.1636   -1.3658 H         1 <0>         0.1994
     56 H21        -0.0026   -3.7842    0.7387 H         1 <0>         0.4494
@<TRIPOS>BOND
     1    1    2 1
     2    1   37 1
     3    1   38 1
     4    1   39 1
     5    2    7 1
     6    2    3 2
     7    3    4 1
     8    3   24 1
     9    4    5 1
    10    4   16 1
    11    4   40 1
    12    5    6 2
    13    5   56 1
    14    6    7 1
    15    6    8 1
    16    7   41 1
    17    8   13 ar
    18    8    9 ar
    19    9   10 ar
    20    9   42 1
    21   10   11 ar
    22   10   43 1
    23   11   12 ar
    24   11   14 1
    25   12   13 ar
    26   13   44 1
    27   14   15 1
    28   15   45 1
    29   15   46 1
    30   15   47 1
    31   16   21 ar
    32   16   17 ar
    33   17   18 ar
    34   17   48 1
    35   18   19 ar
    36   18   49 1
    37   19   20 ar
    38   19   23 1
    39   20   21 ar
    40   20   50 1
    41   21   22 1
    42   24   25 2
    43   24   26 am
    44   26   27 1
    45   26   51 1
    46   27   32 ar
    47   27   28 ar
    48   28   29 ar
    49   28   52 1
    50   29   30 ar
    51   29   53 1
    52   30   35 1
    53   30   31 ar
    54   31   32 ar
    55   31   33 1
    56   32   54 1
    57   33   34 2
    58   33   55 1
    59   34   35 1
    60   35   36 1
@<TRIPOS>MOLECULE
CHEMBL483574__2
   54    58     0     0     0
SMALL
USER_CHARGES

@<TRIPOS>ATOM
      1 C1         -0.3608    1.6422    0.8557 C.3       1 <0>        -0.1052
      2 C2         -0.2655    0.1482    0.6832 C.2       1 <0>         0.3100
      3 C3         -1.4166   -0.5928    0.3958 C.2       1 <0>        -0.4557
      4 C4         -1.2418   -2.0921    0.2359 C.3       1 <0>         0.2202
      5 N1          0.1274   -2.6111    0.4010 N.2       1 <0>        -0.5946
      6 C5          1.0909   -1.7662    0.6700 C.2       1 <0>         0.4067
      7 N2          0.8992   -0.4490    0.7984 N.2       1 <0>        -0.6640
      8 C6          2.4651   -2.2961    0.8350 C.ar      1 <0>        -0.1034
      9 C7          3.5284   -1.4336    1.1290 C.ar      1 <0>        -0.0010
     10 C8          4.7907   -1.9738    1.2736 C.ar      1 <0>        -0.2026
     11 C9          4.9639   -3.3457    1.1239 C.ar      1 <0>         0.3118
     12 N3          3.9379   -4.1340    0.8456 N.ar      1 <0>        -0.5477
     13 C10         2.7166   -3.6599    0.7057 C.ar      1 <0>         0.1742
     14 O1          6.2008   -3.8827    1.2646 O.3       1 <0>        -0.3125
     15 C11         6.3164   -5.2974    1.0995 C.3       1 <0>         0.0416
     16 C12        -2.1273   -2.7773    1.2446 C.ar      1 <0>        -0.0574
     17 C13        -3.2857   -3.4083    0.8316 C.ar      1 <0>        -0.0393
     18 C14        -4.0984   -4.0369    1.7559 C.ar      1 <0>        -0.1285
     19 C15        -3.7532   -4.0356    3.0960 C.ar      1 <0>        -0.0212
     20 C16        -2.5944   -3.4052    3.5109 C.ar      1 <0>        -0.1635
     21 C17        -1.7777   -2.7796    2.5842 C.ar      1 <0>         0.1221
     22 F1         -0.6430   -2.1674    2.9876 F         1 <0>        -0.1296
     23 Cl1        -4.7751   -4.8250    4.2563 Cl        1 <0>        -0.0835
     24 C18        -2.6502    0.0094    0.2645 C.2       1 <0>         0.5328
     25 O2         -3.7570   -0.7467    0.1099 O.3       1 <0>        -0.6365
     26 N4         -2.7518    1.3732    0.2910 N.pl3     1 <0>        -0.7033
     27 C19        -3.5619    1.9963    1.2477 C.ar      1 <0>         0.1896
     28 C20        -4.1593    1.2353    2.2537 C.ar      1 <0>        -0.0935
     29 C21        -4.9525    1.8234    3.1957 C.ar      1 <0>        -0.1084
     30 C22        -5.1750    3.1981    3.1620 C.ar      1 <0>         0.0840
     31 C23        -4.5774    3.9755    2.1517 C.ar      1 <0>        -0.1390
     32 C24        -3.7615    3.3615    1.1947 C.ar      1 <0>        -0.1342
     33 C25        -4.9990    5.3524    2.3895 C.2       1 <0>         0.0636
     34 N5         -5.7676    5.3576    3.4410 N.2       1 <0>        -0.2570
     35 N6         -5.9015    4.0597    3.9446 N.pl3     1 <0>        -0.5147
     36 H1         -6.4243    3.8089    4.7222 H         1 <0>         0.4350
     37 H2          0.6108    2.0363    1.1536 H         1 <0>         0.0632
     38 H3         -0.6644    2.0982   -0.0866 H         1 <0>         0.0654
     39 H4         -1.0978    1.8728    1.6250 H         1 <0>         0.0789
     40 H5         -1.5920   -2.3701   -0.7581 H         1 <0>         0.0553
     41 H6          3.3651   -0.3717    1.2395 H         1 <0>         0.1536
     42 H7          5.6341   -1.3383    1.5000 H         1 <0>         0.1382
     43 H8          1.9033   -4.3348    0.4836 H         1 <0>         0.1698
     44 H9          7.3557   -5.5956    1.2377 H         1 <0>         0.0909
     45 H10         5.6925   -5.8016    1.8375 H         1 <0>         0.0572
     46 H11         5.9892   -5.5742    0.0972 H         1 <0>         0.0571
     47 H12        -3.5560   -3.4098   -0.2141 H         1 <0>         0.1333
     48 H13        -5.0037   -4.5290    1.4322 H         1 <0>         0.1283
     49 H14        -2.3247   -3.4040    4.5567 H         1 <0>         0.1317
     50 H15        -2.2625    1.9086   -0.3531 H         1 <0>         0.4053
     51 H16        -3.9922    0.1688    2.2868 H         1 <0>         0.1370
     52 H17        -5.4086    1.2221    3.9682 H         1 <0>         0.1223
     53 H18        -3.2950    3.9501    0.4187 H         1 <0>         0.1257
     54 H19        -4.7229    6.2134    1.7988 H         1 <0>         0.1918
@<TRIPOS>BOND
     1    1    2 1
     2    1   37 1
     3    1   38 1
     4    1   39 1
     5    2    7 2
     6    2    3 1
     7    3    4 1
     8    3   24 2
     9    4    5 1
    10    4   16 1
    11    4   40 1
    12    5    6 2
    13    6    7 1
    14    6    8 1
    15    8   13 ar
    16    8    9 ar
    17    9   10 ar
    18    9   41 1
    19   10   11 ar
    20   10   42 1
    21   11   12 ar
    22   11   14 1
    23   12   13 ar
    24   13   43 1
    25   14   15 1
    26   15   44 1
    27   15   45 1
    28   15   46 1
    29   16   21 ar
    30   16   17 ar
    31   17   18 ar
    32   17   47 1
    33   18   19 ar
    34   18   48 1
    35   19   20 ar
    36   19   23 1
    37   20   21 ar
    38   20   49 1
    39   21   22 1
    40   24   25 1
    41   24   26 1
    42   26   27 1
    43   26   50 1
    44   27   32 ar
    45   27   28 ar
    46   28   29 ar
    47   28   51 1
    48   29   30 ar
    49   29   52 1
    50   30   35 1
    51   30   31 ar
    52   31   32 ar
    53   31   33 1
    54   32   53 1
    55   33   34 2
    56   33   54 1
    57   34   35 1
    58   35   36 1
@<TRIPOS>MOLECULE
CHEMBL483574__3
   56    60     0     0     0
SMALL
USER_CHARGES

@<TRIPOS>ATOM
      1 C1         -0.8349    1.1945   -1.7155 C.3       1 <0>        -0.1192
      2 C2         -0.5421   -0.0114   -0.8605 C.2       1 <0>         0.2183
      3 C3         -1.5201   -0.8901   -0.5729 C.2       1 <0>        -0.2571
      4 C4         -1.2518   -2.0925    0.2866 C.3       1 <0>         0.2104
      5 N1          0.1782   -2.3516    0.4013 N.pl3     1 <0>        -0.5816
      6 C5          1.0756   -1.4687    0.0970 C.cat     1 <0>         0.5978
      7 N2          0.7237   -0.2220   -0.3762 N.pl3     1 <0>        -0.6071
      8 C6          2.5069   -1.8057    0.2554 C.ar      1 <0>        -0.2628
      9 C7          3.4714   -1.2203   -0.5758 C.ar      1 <0>         0.0226
     10 C8          4.7947   -1.5659   -0.3893 C.ar      1 <0>        -0.1809
     11 C9          5.1253   -2.4763    0.6092 C.ar      1 <0>         0.3914
     12 N3          4.1905   -3.0118    1.3781 N.ar      1 <0>        -0.5299
     13 C10         2.9170   -2.7058    1.2375 C.ar      1 <0>         0.2261
     14 O1          6.4230   -2.8201    0.7971 O.3       1 <0>        -0.2823
     15 C11         6.7012   -3.7594    1.8375 C.3       1 <0>         0.0285
     16 C12        -1.8220   -1.8540    1.6610 C.ar      1 <0>        -0.1857
     17 C13        -1.8867   -0.5702    2.1693 C.ar      1 <0>        -0.0457
     18 C14        -2.4095   -0.3506    3.4296 C.ar      1 <0>        -0.1136
     19 C15        -2.8693   -1.4157    4.1840 C.ar      1 <0>         0.0182
     20 C16        -2.8059   -2.7007    3.6769 C.ar      1 <0>        -0.1405
     21 C17        -2.2865   -2.9201    2.4123 C.ar      1 <0>         0.1418
     22 F1         -2.2282   -4.1745    1.9139 F         1 <0>        -0.1219
     23 Cl1        -3.5254   -1.1387    5.7673 Cl        1 <0>        -0.0241
     24 C18        -2.8217   -0.6777   -1.0880 C.2       1 <0>         0.5722
     25 O2         -3.0794    0.3512   -1.6862 O.2       1 <0>        -0.5040
     26 N4         -3.7755   -1.6143   -0.9162 N.am      1 <0>        -0.6557
     27 C19        -5.0660   -1.3995   -1.4162 C.ar      1 <0>         0.0965
     28 C20        -5.5591   -0.0989   -1.5295 C.ar      1 <0>        -0.0687
     29 C21        -6.8136    0.1319   -2.0146 C.ar      1 <0>        -0.1206
     30 C22        -7.6195   -0.9356   -2.4035 C.ar      1 <0>         0.1246
     31 C23        -7.1322   -2.2518   -2.2934 C.ar      1 <0>        -0.1632
     32 C24        -5.8417   -2.4750   -1.7997 C.ar      1 <0>        -0.0625
     33 C25        -8.1978   -3.1259   -2.7733 C.2       1 <0>         0.0759
     34 N5         -9.2016   -2.3740   -3.1249 N.2       1 <0>        -0.2387
     35 N6         -8.8895   -1.0270   -2.9148 N.pl3     1 <0>        -0.5062
     36 H1         -9.4768   -0.2776   -3.1005 H         1 <0>         0.4436
     37 H2          0.0754    1.7808   -1.8408 H         1 <0>         0.0786
     38 H3         -1.1948    0.8691   -2.6916 H         1 <0>         0.1191
     39 H4         -1.5972    1.8059   -1.2325 H         1 <0>         0.1232
     40 H5         -1.7380   -2.9625   -0.1546 H         1 <0>         0.1386
     41 H6          1.3681    0.5030   -0.3631 H         1 <0>         0.4552
     42 H7          3.1863   -0.5164   -1.3437 H         1 <0>         0.1614
     43 H8          5.5646   -1.1346   -1.0118 H         1 <0>         0.1709
     44 H9          2.1830   -3.1600    1.8867 H         1 <0>         0.1730
     45 H10         7.7741   -3.9466    1.8806 H         1 <0>         0.1140
     46 H11         6.3643   -3.3548    2.7919 H         1 <0>         0.0718
     47 H12         6.1774   -4.6932    1.6335 H         1 <0>         0.0718
     48 H13        -1.5280    0.2617    1.5813 H         1 <0>         0.1414
     49 H14        -2.4589    0.6528    3.8261 H         1 <0>         0.1529
     50 H15        -3.1646   -3.5321    4.2654 H         1 <0>         0.1609
     51 H16        -3.5681   -2.4372   -0.4463 H         1 <0>         0.4047
     52 H17        -4.9410    0.7344   -1.2296 H         1 <0>         0.1512
     53 H18        -7.1823    1.1437   -2.0969 H         1 <0>         0.1337
     54 H19        -5.4575   -3.4808   -1.7157 H         1 <0>         0.1326
     55 H20        -8.1606   -4.2039   -2.8275 H         1 <0>         0.2002
     56 H21         0.4695   -3.2206    0.7188 H         1 <0>         0.4489
@<TRIPOS>BOND
     1    1    2 1
     2    1   37 1
     3    1   38 1
     4    1   39 1
     5    2    7 1
     6    2    3 2
     7    3    4 1
     8    3   24 1
     9    4    5 1
    10    4   16 1
    11    4   40 1
    12    5    6 2
    13    5   56 1
    14    6    7 1
    15    6    8 1
    16    7   41 1
    17    8   13 ar
    18    8    9 ar
    19    9   10 ar
    20    9   42 1
    21   10   11 ar
    22   10   43 1
    23   11   12 ar
    24   11   14 1
    25   12   13 ar
    26   13   44 1
    27   14   15 1
    28   15   45 1
    29   15   46 1
    30   15   47 1
    31   16   21 ar
    32   16   17 ar
    33   17   18 ar
    34   17   48 1
    35   18   19 ar
    36   18   49 1
    37   19   20 ar
    38   19   23 1
    39   20   21 ar
    40   20   50 1
    41   21   22 1
    42   24   25 2
    43   24   26 am
    44   26   27 1
    45   26   51 1
    46   27   32 ar
    47   27   28 ar
    48   28   29 ar
    49   28   52 1
    50   29   30 ar
    51   29   53 1
    52   30   35 1
    53   30   31 ar
    54   31   32 ar
    55   31   33 1
    56   32   54 1
    57   33   34 2
    58   33   55 1
    59   34   35 1
    60   35   36 1
@<TRIPOS>MOLECULE
CHEMBL483402
   54    58     0     0     0
SMALL
USER_CHARGES

@<TRIPOS>ATOM
      1 C1          0.4954    1.5350   -0.1158 C.3       1 <0>        -0.0859
      2 C2          0.3697    0.0354   -0.0356 C.2       1 <0>         0.3358
      3 C3         -0.8922   -0.5616   -0.1203 C.2       1 <0>        -0.4584
      4 C4         -0.9383   -2.0762   -0.0315 C.3       1 <0>         0.2072
      5 N1          0.3562   -2.7600    0.1352 N.2       1 <0>        -0.5920
      6 C5          1.4445   -2.0369    0.1955 C.2       1 <0>         0.4009
      7 N2          1.4471   -0.7034    0.1082 N.2       1 <0>        -0.6692
      8 C6          2.7447   -2.7341    0.3641 C.ar      1 <0>         0.0584
      9 C7          2.8053   -4.1287    0.4504 C.ar      1 <0>        -0.1693
     10 C8          4.0320   -4.7395    0.6068 C.ar      1 <0>         0.1194
     11 N3          5.1409   -4.0275    0.6759 N.ar      1 <0>        -0.5438
     12 C9          5.1303   -2.7075    0.5988 C.ar      1 <0>         0.3021
     13 C10         3.9379   -2.0158    0.4348 C.ar      1 <0>        -0.1432
     14 O1          6.2986   -2.0217    0.6758 O.3       1 <0>        -0.3096
     15 C11         7.4923   -2.7900    0.8389 C.3       1 <0>         0.0432
     16 C12        -1.5864   -2.5997   -1.2873 C.ar      1 <0>        -0.0664
     17 C13        -2.8685   -3.1142   -1.2405 C.ar      1 <0>        -0.0759
     18 C14        -3.4637   -3.5945   -2.3916 C.ar      1 <0>        -0.1144
     19 C15        -2.7769   -3.5605   -3.5926 C.ar      1 <0>        -0.0165
     20 C16        -1.4943   -3.0458   -3.6413 C.ar      1 <0>        -0.1554
     21 C17        -0.8999   -2.5602   -2.4889 C.ar      1 <0>         0.1297
     22 F1          0.3513   -2.0527   -2.5360 F         1 <0>        -0.1261
     23 Cl1        -3.5252   -4.1646   -5.0378 Cl        1 <0>        -0.0773
     24 C18        -2.0388    0.1893   -0.2765 C.2       1 <0>         0.5367
     25 O2         -1.9668    1.5365   -0.2867 O.3       1 <0>        -0.6378
     26 N4         -3.2486   -0.4320   -0.4210 N.pl3     1 <0>        -0.6999
     27 C19        -4.0266   -0.1929   -1.5601 C.ar      1 <0>         0.1978
     28 C20        -3.5532    0.6606   -2.5578 C.ar      1 <0>        -0.0973
     29 C21        -4.2963    0.9072   -3.6755 C.ar      1 <0>        -0.1095
     30 C22        -5.5426    0.3051   -3.8326 C.ar      1 <0>         0.0850
     31 C23        -6.0298   -0.5579   -2.8327 C.ar      1 <0>        -0.1344
     32 C24        -5.2560   -0.8069   -1.6935 C.ar      1 <0>        -0.1322
     33 C25        -7.3381   -1.0171   -3.2882 C.2       1 <0>         0.0627
     34 N5         -7.5739   -0.4647   -4.4439 N.2       1 <0>        -0.2564
     35 N6         -6.5005    0.3521   -4.8138 N.pl3     1 <0>        -0.5147
     36 H1         -6.4426    0.8689   -5.6327 H         1 <0>         0.4339
     37 H2          1.5455    1.8163   -0.0369 H         1 <0>         0.0473
     38 H3          0.0967    1.8825   -1.0689 H         1 <0>         0.0761
     39 H4         -0.0652    1.9907    0.7004 H         1 <0>         0.0808
     40 H5         -1.5756   -2.3472    0.8102 H         1 <0>         0.0500
     41 H6          1.9031   -4.7199    0.3956 H         1 <0>         0.1457
     42 H7          4.0858   -5.8160    0.6741 H         1 <0>         0.1562
     43 H8          3.9340   -0.9379    0.3673 H         1 <0>         0.1539
     44 H9          7.4300   -3.3668    1.7617 H         1 <0>         0.0549
     45 H10         7.6061   -3.4685   -0.0066 H         1 <0>         0.0549
     46 H11         8.3515   -2.1209    0.8860 H         1 <0>         0.0908
     47 H12        -3.4054   -3.1411   -0.3038 H         1 <0>         0.1286
     48 H13        -4.4652   -3.9969   -2.3539 H         1 <0>         0.1304
     49 H14        -0.9580   -3.0191   -4.5783 H         1 <0>         0.1330
     50 H15        -3.5676   -1.0383    0.2657 H         1 <0>         0.4001
     51 H16        -2.5879    1.1315   -2.4438 H         1 <0>         0.1384
     52 H17        -3.9177    1.5704   -4.4392 H         1 <0>         0.1204
     53 H18        -5.6194   -1.4709   -0.9231 H         1 <0>         0.1221
     54 H19        -7.9938   -1.6943   -2.7610 H         1 <0>         0.1896
@<TRIPOS>BOND
     1    1    2 1
     2    1   37 1
     3    1   38 1
     4    1   39 1
     5    2    7 2
     6    2    3 1
     7    3    4 1
     8    3   24 2
     9    4    5 1
    10    4   16 1
    11    4   40 1
    12    5    6 2
    13    6    7 1
    14    6    8 1
    15    8   13 ar
    16    8    9 ar
    17    9   10 ar
    18    9   41 1
    19   10   11 ar
    20   10   42 1
    21   11   12 ar
    22   12   13 ar
    23   12   14 1
    24   13   43 1
    25   14   15 1
    26   15   44 1
    27   15   45 1
    28   15   46 1
    29   16   21 ar
    30   16   17 ar
    31   17   18 ar
    32   17   47 1
    33   18   19 ar
    34   18   48 1
    35   19   20 ar
    36   19   23 1
    37   20   21 ar
    38   20   49 1
    39   21   22 1
    40   24   25 1
    41   24   26 1
    42   26   27 1
    43   26   50 1
    44   27   32 ar
    45   27   28 ar
    46   28   29 ar
    47   28   51 1
    48   29   30 ar
    49   29   52 1
    50   30   35 1
    51   30   31 ar
    52   31   32 ar
    53   31   33 1
    54   32   53 1
    55   33   34 2
    56   33   54 1
    57   34   35 1
    58   35   36 1
@<TRIPOS>MOLECULE
CHEMBL483402__1
   56    60     0     0     0
SMALL
USER_CHARGES

@<TRIPOS>ATOM
      1 C1          0.5931    1.0234   -1.1619 C.3       1 <0>        -0.1207
      2 C2          0.3398   -0.4130   -0.7827 C.2       1 <0>         0.2209
      3 C3         -0.9031   -0.8198   -0.4651 C.2       1 <0>        -0.2596
      4 C4         -1.1779   -2.2498   -0.0957 C.3       1 <0>         0.2090
      5 N1          0.0539   -2.9567    0.2326 N.pl3     1 <0>        -0.5683
      6 C5          1.2238   -2.5076   -0.0866 C.cat     1 <0>         0.5887
      7 N2          1.3738   -1.3140   -0.7649 N.pl3     1 <0>        -0.6001
      8 C6          2.4273   -3.2925    0.2783 C.ar      1 <0>        -0.0696
      9 C7          2.3759   -4.6883    0.3637 C.ar      1 <0>        -0.1676
     10 C8          3.5172   -5.3827    0.7063 C.ar      1 <0>         0.1735
     11 N3          4.6487   -4.7501    0.9525 N.ar      1 <0>        -0.4974
     12 C9          4.7432   -3.4331    0.8838 C.ar      1 <0>         0.3464
     13 C10         3.6430   -2.6594    0.5401 C.ar      1 <0>        -0.1336
     14 O1          5.9306   -2.8313    1.1466 O.3       1 <0>        -0.2942
     15 C11         7.0271   -3.6814    1.4887 C.3       1 <0>         0.0329
     16 C12        -1.8486   -2.9392   -1.2558 C.ar      1 <0>        -0.1890
     17 C13        -1.9242   -2.3097   -2.4840 C.ar      1 <0>        -0.0433
     18 C14        -2.5392   -2.9412   -3.5485 C.ar      1 <0>        -0.1107
     19 C15        -3.0795   -4.2048   -3.3860 C.ar      1 <0>         0.0180
     20 C16        -3.0044   -4.8363   -2.1580 C.ar      1 <0>        -0.1397
     21 C17        -2.3840   -4.2056   -1.0929 C.ar      1 <0>         0.1371
     22 F1         -2.3058   -4.8234    0.1060 F         1 <0>        -0.1254
     23 Cl1        -3.8522   -4.9969   -4.7236 Cl        1 <0>        -0.0225
     24 C18        -1.9675    0.1139   -0.4788 C.2       1 <0>         0.5720
     25 O2         -1.7390    1.2948   -0.6685 O.2       1 <0>        -0.5013
     26 N4         -3.2334   -0.3045   -0.2819 N.am      1 <0>        -0.6520
     27 C19        -4.3011    0.5824   -0.4691 C.ar      1 <0>         0.0967
     28 C20        -4.0812    1.9587   -0.3973 C.ar      1 <0>        -0.0870
     29 C21        -5.1081    2.8397   -0.5762 C.ar      1 <0>        -0.1202
     30 C22        -6.3940    2.3704   -0.8339 C.ar      1 <0>         0.1228
     31 C23        -6.6271    0.9841   -0.9089 C.ar      1 <0>        -0.1618
     32 C24        -5.5646    0.0910   -0.7291 C.ar      1 <0>        -0.0657
     33 C25        -8.0507    0.8213   -1.1859 C.2       1 <0>         0.0749
     34 N5         -8.5801    2.0089   -1.2618 N.2       1 <0>        -0.2384
     35 N6         -7.6010    2.9855   -1.0524 N.pl3     1 <0>        -0.5066
     36 H1         -7.7511    3.9438   -1.0604 H         1 <0>         0.4435
     37 H2          1.6507    1.1583   -1.3883 H         1 <0>         0.0807
     38 H3         -0.0016    1.2778   -2.0392 H         1 <0>         0.1193
     39 H4          0.3133    1.6729   -0.3325 H         1 <0>         0.1266
     40 H5         -1.8443   -2.2742    0.7666 H         1 <0>         0.1437
     41 H6          2.2049   -1.1123   -1.2227 H         1 <0>         0.4581
     42 H7          1.4543   -5.2150    0.1643 H         1 <0>         0.1550
     43 H8          3.4843   -6.4601    0.7743 H         1 <0>         0.1874
     44 H9          3.7256   -1.5843    0.4803 H         1 <0>         0.1622
     45 H10         7.9134   -3.0744    1.6737 H         1 <0>         0.1114
     46 H11         6.7810   -4.2483    2.3865 H         1 <0>         0.0694
     47 H12         7.2233   -4.3698    0.6667 H         1 <0>         0.0695
     48 H13        -1.5028   -1.3235   -2.6118 H         1 <0>         0.1461
     49 H14        -2.5983   -2.4481   -4.5075 H         1 <0>         0.1540
     50 H15        -3.4260   -5.8224   -2.0309 H         1 <0>         0.1611
     51 H16        -3.4051   -1.2198   -0.0106 H         1 <0>         0.4068
     52 H17        -3.0872    2.3308   -0.1976 H         1 <0>         0.1712
     53 H18        -4.9234    3.9022   -0.5176 H         1 <0>         0.1334
     54 H19        -5.7327   -0.9741   -0.7892 H         1 <0>         0.1309
     55 H20        -8.5722   -0.1167   -1.3071 H         1 <0>         0.1995
     56 H21        -0.0064   -3.7987    0.7105 H         1 <0>         0.4521
@<TRIPOS>BOND
     1    1    2 1
     2    1   37 1
     3    1   38 1
     4    1   39 1
     5    2    7 1
     6    2    3 2
     7    3    4 1
     8    3   24 1
     9    4    5 1
    10    4   16 1
    11    4   40 1
    12    5    6 2
    13    5   56 1
    14    6    7 1
    15    6    8 1
    16    7   41 1
    17    8   13 ar
    18    8    9 ar
    19    9   10 ar
    20    9   42 1
    21   10   11 ar
    22   10   43 1
    23   11   12 ar
    24   12   13 ar
    25   12   14 1
    26   13   44 1
    27   14   15 1
    28   15   45 1
    29   15   46 1
    30   15   47 1
    31   16   21 ar
    32   16   17 ar
    33   17   18 ar
    34   17   48 1
    35   18   19 ar
    36   18   49 1
    37   19   20 ar
    38   19   23 1
    39   20   21 ar
    40   20   50 1
    41   21   22 1
    42   24   25 2
    43   24   26 am
    44   26   27 1
    45   26   51 1
    46   27   32 ar
    47   27   28 ar
    48   28   29 ar
    49   28   52 1
    50   29   30 ar
    51   29   53 1
    52   30   35 1
    53   30   31 ar
    54   31   32 ar
    55   31   33 1
    56   32   54 1
    57   33   34 2
    58   33   55 1
    59   34   35 1
    60   35   36 1
@<TRIPOS>MOLECULE
CHEMBL483402__2
   54    58     0     0     0
SMALL
USER_CHARGES

@<TRIPOS>ATOM
      1 C1         -0.3564    1.6418    0.8539 C.3       1 <0>        -0.1057
      2 C2         -0.2632    0.1475    0.6823 C.2       1 <0>         0.3103
      3 C3         -1.4148   -0.5920    0.3948 C.2       1 <0>        -0.4554
      4 C4         -1.2413   -2.0917    0.2361 C.3       1 <0>         0.2187
      5 N1          0.1273   -2.6116    0.4023 N.2       1 <0>        -0.5809
      6 C5          1.0905   -1.7684    0.6710 C.2       1 <0>         0.3939
      7 N2          0.9008   -0.4517    0.7985 N.2       1 <0>        -0.6610
      8 C6          2.4665   -2.3009    0.8374 C.ar      1 <0>         0.0595
      9 C7          2.7278   -3.6685    0.7047 C.ar      1 <0>        -0.1696
     10 C8          4.0193   -4.1246    0.8666 C.ar      1 <0>         0.1204
     11 N3          5.0038   -3.2910    1.1439 N.ar      1 <0>        -0.5440
     12 C9          4.8025   -1.9910    1.2782 C.ar      1 <0>         0.3020
     13 C10         3.5334   -1.4499    1.1246 C.ar      1 <0>        -0.1447
     14 O1          5.8491   -1.1762    1.5641 O.3       1 <0>        -0.3101
     15 C11         7.1311   -1.7917    1.7047 C.3       1 <0>         0.0432
     16 C12        -2.1280   -2.7753    1.2447 C.ar      1 <0>        -0.0585
     17 C13        -3.2867   -3.4056    0.8314 C.ar      1 <0>        -0.0388
     18 C14        -4.1006   -4.0328    1.7557 C.ar      1 <0>        -0.1283
     19 C15        -3.7561   -4.0309    3.0960 C.ar      1 <0>        -0.0206
     20 C16        -2.5969   -3.4012    3.5112 C.ar      1 <0>        -0.1631
     21 C17        -1.7792   -2.7770    2.5845 C.ar      1 <0>         0.1221
     22 F1         -0.6441   -2.1655    2.9881 F         1 <0>        -0.1297
     23 Cl1        -4.7793   -4.8186    4.2563 Cl        1 <0>        -0.0828
     24 C18        -2.6480    0.0117    0.2623 C.2       1 <0>         0.5344
     25 O2         -3.7555   -0.7432    0.1075 O.3       1 <0>        -0.6353
     26 N4         -2.7481    1.3754    0.2880 N.pl3     1 <0>        -0.7032
     27 C19        -3.5583    1.9999    1.2438 C.ar      1 <0>         0.1890
     28 C20        -4.1571    1.2401    2.2498 C.ar      1 <0>        -0.0935
     29 C21        -4.9507    1.8296    3.1906 C.ar      1 <0>        -0.1084
     30 C22        -5.1717    3.2045    3.1560 C.ar      1 <0>         0.0843
     31 C23        -4.5723    3.9807    2.1459 C.ar      1 <0>        -0.1390
     32 C24        -3.7564    3.3653    1.1898 C.ar      1 <0>        -0.1335
     33 C25        -4.9929    5.3581    2.3823 C.2       1 <0>         0.0638
     34 N5         -5.7627    5.3647    3.4329 N.2       1 <0>        -0.2569
     35 N6         -5.8984    4.0672    3.9371 N.pl3     1 <0>        -0.5147
     36 H1         -6.4222    3.8174    4.7144 H         1 <0>         0.4350
     37 H2          0.6157    2.0346    1.1520 H         1 <0>         0.0644
     38 H3         -0.6589    2.0976   -0.0889 H         1 <0>         0.0660
     39 H4         -1.0934    1.8739    1.6226 H         1 <0>         0.0794
     40 H5         -1.5911   -2.3700   -0.7580 H         1 <0>         0.0572
     41 H6          1.9284   -4.3586    0.4786 H         1 <0>         0.1462
     42 H7          4.2278   -5.1795    0.7654 H         1 <0>         0.1565
     43 H8          3.3739   -0.3870    1.2302 H         1 <0>         0.1529
     44 H9          7.0974   -2.5204    2.5146 H         1 <0>         0.0550
     45 H10         7.3967   -2.2943    0.7746 H         1 <0>         0.0550
     46 H11         7.8769   -1.0300    1.9319 H         1 <0>         0.0907
     47 H12        -3.5565   -3.4076   -0.2143 H         1 <0>         0.1336
     48 H13        -5.0060   -4.5243    1.4319 H         1 <0>         0.1287
     49 H14        -2.3278   -3.3996    4.5571 H         1 <0>         0.1322
     50 H15        -2.2578    1.9099   -0.3560 H         1 <0>         0.4056
     51 H16        -3.9909    0.1735    2.2838 H         1 <0>         0.1368
     52 H17        -5.4083    1.2292    3.9630 H         1 <0>         0.1224
     53 H18        -3.2886    3.9530    0.4138 H         1 <0>         0.1259
     54 H19        -4.7153    6.2185    1.7914 H         1 <0>         0.1919
@<TRIPOS>BOND
     1    1    2 1
     2    1   37 1
     3    1   38 1
     4    1   39 1
     5    2    7 2
     6    2    3 1
     7    3    4 1
     8    3   24 2
     9    4    5 1
    10    4   16 1
    11    4   40 1
    12    5    6 2
    13    6    7 1
    14    6    8 1
    15    8   13 ar
    16    8    9 ar
    17    9   10 ar
    18    9   41 1
    19   10   11 ar
    20   10   42 1
    21   11   12 ar
    22   12   13 ar
    23   12   14 1
    24   13   43 1
    25   14   15 1
    26   15   44 1
    27   15   45 1
    28   15   46 1
    29   16   21 ar
    30   16   17 ar
    31   17   18 ar
    32   17   47 1
    33   18   19 ar
    34   18   48 1
    35   19   20 ar
    36   19   23 1
    37   20   21 ar
    38   20   49 1
    39   21   22 1
    40   24   25 1
    41   24   26 1
    42   26   27 1
    43   26   50 1
    44   27   32 ar
    45   27   28 ar
    46   28   29 ar
    47   28   51 1
    48   29   30 ar
    49   29   52 1
    50   30   35 1
    51   30   31 ar
    52   31   32 ar
    53   31   33 1
    54   32   53 1
    55   33   34 2
    56   33   54 1
    57   34   35 1
    58   35   36 1
@<TRIPOS>MOLECULE
CHEMBL483402__3
   56    60     0     0     0
SMALL
USER_CHARGES

@<TRIPOS>ATOM
      1 C1         -0.8336    1.2032   -1.6997 C.3       1 <0>        -0.1194
      2 C2         -0.5422   -0.0060   -0.8488 C.2       1 <0>         0.2171
      3 C3         -1.5200   -0.8869   -0.5674 C.2       1 <0>        -0.2540
      4 C4         -1.2521   -2.0921    0.2885 C.3       1 <0>         0.2081
      5 N1          0.1780   -2.3488    0.4069 N.pl3     1 <0>        -0.5675
      6 C5          1.0737   -1.4659    0.1065 C.cat     1 <0>         0.5874
      7 N2          0.7225   -0.2177   -0.3616 N.pl3     1 <0>        -0.5999
      8 C6          2.5084   -1.8045    0.2636 C.ar      1 <0>        -0.0655
      9 C7          2.9568   -3.1210    0.1089 C.ar      1 <0>        -0.1696
     10 C8          4.2996   -3.3957    0.2630 C.ar      1 <0>         0.1754
     11 N3          5.1596   -2.4378    0.5526 N.ar      1 <0>        -0.4988
     12 C9          4.7807   -1.1806    0.7077 C.ar      1 <0>         0.3484
     13 C10         3.4484   -0.8179    0.5639 C.ar      1 <0>        -0.1384
     14 O1          5.7054   -0.2332    1.0052 O.3       1 <0>        -0.2944
     15 C11         7.0607   -0.6675    1.1343 C.3       1 <0>         0.0329
     16 C12        -1.8273   -1.8600    1.6620 C.ar      1 <0>        -0.1872
     17 C13        -1.8974   -0.5781    2.1743 C.ar      1 <0>        -0.0457
     18 C14        -2.4248   -0.3643    3.4337 C.ar      1 <0>        -0.1132
     19 C15        -2.8837   -1.4333    4.1832 C.ar      1 <0>         0.0194
     20 C16        -2.8147   -2.7164    3.6720 C.ar      1 <0>        -0.1403
     21 C17        -2.2908   -2.9300    2.4082 C.ar      1 <0>         0.1435
     22 F1         -2.2272   -4.1825    1.9058 F         1 <0>        -0.1216
     23 Cl1        -3.5454   -1.1637    5.7653 Cl        1 <0>        -0.0225
     24 C18        -2.8205   -0.6744   -1.0853 C.2       1 <0>         0.5720
     25 O2         -3.0780    0.3565   -1.6802 O.2       1 <0>        -0.5018
     26 N4         -3.7734   -1.6130   -0.9198 N.am      1 <0>        -0.6547
     27 C19        -5.0631   -1.3975   -1.4215 C.ar      1 <0>         0.0956
     28 C20        -5.5557   -0.0967   -1.5348 C.ar      1 <0>        -0.0691
     29 C21        -6.8098    0.1347   -2.0208 C.ar      1 <0>        -0.1203
     30 C22        -7.6156   -0.9324   -2.4109 C.ar      1 <0>         0.1250
     31 C23        -7.1286   -2.2488   -2.3014 C.ar      1 <0>        -0.1632
     32 C24        -5.8387   -2.4726   -1.8067 C.ar      1 <0>        -0.0620
     33 C25        -8.1943   -3.1224   -2.7822 C.2       1 <0>         0.0760
     34 N5         -9.1977   -2.3701   -3.1339 N.2       1 <0>        -0.2384
     35 N6         -8.8854   -1.0232   -2.9229 N.pl3     1 <0>        -0.5061
     36 H1         -9.4723   -0.2736   -3.1087 H         1 <0>         0.4437
     37 H2          0.0765    1.7907   -1.8200 H         1 <0>         0.0802
     38 H3         -1.1905    0.8815   -2.6781 H         1 <0>         0.1205
     39 H4         -1.5978    1.8119   -1.2164 H         1 <0>         0.1248
     40 H5         -1.7352   -2.9614   -0.1576 H         1 <0>         0.1417
     41 H6          1.3661    0.5078   -0.3430 H         1 <0>         0.4561
     42 H7          2.2604   -3.9119   -0.1278 H         1 <0>         0.1557
     43 H8          4.6522   -4.4097    0.1453 H         1 <0>         0.1877
     44 H9          3.1437    0.2109    0.6865 H         1 <0>         0.1595
     45 H10         7.6947    0.1865    1.3727 H         1 <0>         0.1114
     46 H11         7.1310   -1.4062    1.9327 H         1 <0>         0.0695
     47 H12         7.3902   -1.1139    0.1961 H         1 <0>         0.0697
     48 H13        -1.5396    0.2569    1.5902 H         1 <0>         0.1416
     49 H14        -2.4785    0.6376    3.8334 H         1 <0>         0.1538
     50 H15        -3.1727   -3.5509    4.2566 H         1 <0>         0.1616
     51 H16        -3.5660   -2.4377   -0.4533 H         1 <0>         0.4046
     52 H17        -4.9375    0.7363   -1.2342 H         1 <0>         0.1515
     53 H18        -7.1782    1.1466   -2.1026 H         1 <0>         0.1339
     54 H19        -5.4547   -3.4786   -1.7231 H         1 <0>         0.1328
     55 H20        -8.1572   -4.2003   -2.8373 H         1 <0>         0.2003
     56 H21         0.4697   -3.2178    0.7243 H         1 <0>         0.4524
@<TRIPOS>BOND
     1    1    2 1
     2    1   37 1
     3    1   38 1
     4    1   39 1
     5    2    7 1
     6    2    3 2
     7    3    4 1
     8    3   24 1
     9    4    5 1
    10    4   16 1
    11    4   40 1
    12    5    6 2
    13    5   56 1
    14    6    7 1
    15    6    8 1
    16    7   41 1
    17    8   13 ar
    18    8    9 ar
    19    9   10 ar
    20    9   42 1
    21   10   11 ar
    22   10   43 1
    23   11   12 ar
    24   12   13 ar
    25   12   14 1
    26   13   44 1
    27   14   15 1
    28   15   45 1
    29   15   46 1
    30   15   47 1
    31   16   21 ar
    32   16   17 ar
    33   17   18 ar
    34   17   48 1
    35   18   19 ar
    36   18   49 1
    37   19   20 ar
    38   19   23 1
    39   20   21 ar
    40   20   50 1
    41   21   22 1
    42   24   25 2
    43   24   26 am
    44   26   27 1
    45   26   51 1
    46   27   32 ar
    47   27   28 ar
    48   28   29 ar
    49   28   52 1
    50   29   30 ar
    51   29   53 1
    52   30   35 1
    53   30   31 ar
    54   31   32 ar
    55   31   33 1
    56   32   54 1
    57   33   34 2
    58   33   55 1
    59   34   35 1
    60   35   36 1
@<TRIPOS>MOLECULE
CHEMBL1079921
   61    65     0     0     0
SMALL
USER_CHARGES

@<TRIPOS>ATOM
      1 C1         -0.0178    1.4648    0.0101 C.3       1 <0>        -0.0476
      2 N1          0.0021   -0.0041    0.0020 N.4       1 <0>        -0.3867
      3 C2          0.7126   -0.4907    1.1921 C.3       1 <0>        -0.0537
      4 C3         -1.3761   -0.5125    0.0124 C.3       1 <0>        -0.0074
      5 C4         -1.3584   -2.0365   -0.1216 C.3       1 <0>        -0.1645
      6 C5         -2.7938   -2.5661   -0.1108 C.3       1 <0>         0.1244
      7 N2         -2.7769   -4.0254   -0.2392 N.am      1 <0>        -0.7364
      8 C6         -3.9353   -4.7141   -0.2533 C.2       1 <0>         0.5706
      9 O1         -4.9944   -4.1243   -0.1595 O.2       1 <0>        -0.5289
     10 C7         -3.9183   -6.1844   -0.3826 C.ar      1 <0>        -0.1795
     11 C8         -2.7027   -6.8662   -0.4849 C.ar      1 <0>        -0.0528
     12 C9         -2.6952   -8.2361   -0.6032 C.ar      1 <0>        -0.1525
     13 C10        -3.8932   -8.9495   -0.6229 C.ar      1 <0>         0.1664
     14 C11        -5.1013   -8.2757   -0.5251 C.ar      1 <0>        -0.1613
     15 C12        -5.1159   -6.9009   -0.3976 C.ar      1 <0>        -0.0138
     16 C13        -6.4164   -9.0131   -0.5545 C.3       1 <0>        -0.0689
     17 C14        -6.1829  -10.4957   -0.2539 C.3       1 <0>        -0.0338
     18 C15        -5.0245  -10.9882   -1.1305 C.3       1 <0>         0.0746
     19 O2         -3.8367  -10.3007   -0.7357 O.3       1 <0>        -0.3018
     20 C16        -7.4295  -11.2808   -0.5712 C.2       1 <0>         0.0860
     21 N3         -8.0318  -11.3911   -1.7191 N.2       1 <0>        -0.4970
     22 C17        -9.1497  -12.1294   -1.8769 C.ar      1 <0>         0.0652
     23 C18        -9.9250  -12.3581   -3.0342 C.ar      1 <0>        -0.0456
     24 C19       -11.0320  -13.1449   -2.9844 C.ar      1 <0>        -0.1111
     25 C20       -11.4422  -13.7528   -1.7938 C.ar      1 <0>         0.0422
     26 C21       -10.6996  -13.5479   -0.6331 C.ar      1 <0>        -0.0696
     27 C22        -9.5818  -12.7539   -0.6841 C.ar      1 <0>        -0.1492
     28 S1         -8.3528  -12.2187    0.4778 S.3       1 <0>         0.0994
     29 C23       -12.6562  -14.6070   -1.7668 C.2       1 <0>        -0.2107
     30 C24       -13.4654  -14.8916   -2.8278 C.2       1 <0>         0.0883
     31 N4        -14.4519  -15.6971   -2.3839 N.pl3     1 <0>        -0.4679
     32 H1        -15.1742  -16.0601   -2.9200 H         1 <0>         0.4456
     33 N5        -14.2529  -15.9193   -1.0160 N.2       1 <0>        -0.2864
     34 C25       -13.1785  -15.2758   -0.6427 C.2       1 <0>         0.0715
     35 H2          1.0047    1.8421    0.0024 H         1 <0>         0.1256
     36 H3         -0.5450    1.8259   -0.8730 H         1 <0>         0.1246
     37 H4         -0.5280    1.8163    0.9069 H         1 <0>         0.1231
     38 H5          1.7352   -0.1134    1.1844 H         1 <0>         0.1256
     39 H6          0.2024   -0.1392    2.0889 H         1 <0>         0.1237
     40 H7          0.7273   -1.5806    1.1861 H         1 <0>         0.1239
     41 H8         -1.8584   -0.2358    0.9500 H         1 <0>         0.1349
     42 H9         -1.9290   -0.0808   -0.8218 H         1 <0>         0.1361
     43 H10        -0.8762   -2.3132   -1.0592 H         1 <0>         0.0953
     44 H11        -0.8055   -2.4683    0.7126 H         1 <0>         0.0954
     45 H12        -3.2761   -2.2894    0.8267 H         1 <0>         0.0792
     46 H13        -3.3467   -2.1344   -0.9450 H         1 <0>         0.0794
     47 H14        -1.9320   -4.4959   -0.3140 H         1 <0>         0.4022
     48 H15        -1.7718   -6.3187   -0.4715 H         1 <0>         0.1290
     49 H16        -1.7557   -8.7629   -0.6817 H         1 <0>         0.1414
     50 H17        -6.0571   -6.3780   -0.3134 H         1 <0>         0.1413
     51 H18        -7.0853   -8.5918    0.1959 H         1 <0>         0.0928
     52 H19        -6.8681   -8.9099   -1.5411 H         1 <0>         0.0969
     53 H20        -5.9268  -10.6213    0.7981 H         1 <0>         0.1137
     54 H21        -4.8905  -12.0612   -0.9930 H         1 <0>         0.1184
     55 H22        -5.2405  -10.7760   -2.1776 H         1 <0>         0.0842
     56 H23        -9.6355  -11.9024   -3.9696 H         1 <0>         0.1352
     57 H24       -11.6078  -13.3038   -3.8841 H         1 <0>         0.1346
     58 H25       -11.0004  -14.0086    0.2962 H         1 <0>         0.1367
     59 H26       -13.3391  -14.5360   -3.8398 H         1 <0>         0.1841
     60 H27       -12.7649  -15.2575    0.3548 H         1 <0>         0.1883
     61 H28         0.4744   -0.3295   -0.8281 H         1 <0>         0.4275
@<TRIPOS>BOND
     1    1    2 1
     2    1   35 1
     3    1   36 1
     4    1   37 1
     5    2    3 1
     6    2    4 1
     7    2   61 1
     8    3   38 1
     9    3   39 1
    10    3   40 1
    11    4    5 1
    12    4   41 1
    13    4   42 1
    14    5    6 1
    15    5   43 1
    16    5   44 1
    17    6    7 1
    18    6   45 1
    19    6   46 1
    20    7    8 am
    21    7   47 1
    22    8    9 2
    23    8   10 1
    24   10   15 ar
    25   10   11 ar
    26   11   12 ar
    27   11   48 1
    28   12   13 ar
    29   12   49 1
    30   13   19 1
    31   13   14 ar
    32   14   15 ar
    33   14   16 1
    34   15   50 1
    35   16   17 1
    36   16   51 1
    37   16   52 1
    38   17   18 1
    39   17   20 1
    40   17   53 1
    41   18   19 1
    42   18   54 1
    43   18   55 1
    44   20   28 1
    45   20   21 2
    46   21   22 1
    47   22   27 ar
    48   22   23 ar
    49   23   24 ar
    50   23   56 1
    51   24   25 ar
    52   24   57 1
    53   25   26 ar
    54   25   29 1
    55   26   27 ar
    56   26   58 1
    57   27   28 1
    58   29   34 1
    59   29   30 2
    60   30   31 1
    61   30   59 1
    62   31   32 1
    63   31   33 1
    64   33   34 2
    65   34   60 1
@<TRIPOS>MOLECULE
CHEMBL1079921__1
   61    65     0     0     0
SMALL
USER_CHARGES

@<TRIPOS>ATOM
      1 C1         -0.0178    1.4648    0.0101 C.3       1 <0>        -0.0476
      2 N1          0.0021   -0.0041    0.0020 N.4       1 <0>        -0.3867
      3 C2          0.7126   -0.4907    1.1921 C.3       1 <0>        -0.0537
      4 C3         -1.3761   -0.5125    0.0124 C.3       1 <0>        -0.0074
      5 C4         -1.3584   -2.0365   -0.1216 C.3       1 <0>        -0.1645
      6 C5         -2.7938   -2.5661   -0.1108 C.3       1 <0>         0.1244
      7 N2         -2.7769   -4.0254   -0.2392 N.am      1 <0>        -0.7364
      8 C6         -3.9353   -4.7141   -0.2533 C.2       1 <0>         0.5706
      9 O1         -4.9944   -4.1243   -0.1595 O.2       1 <0>        -0.5289
     10 C7         -3.9183   -6.1844   -0.3826 C.ar      1 <0>        -0.1795
     11 C8         -2.7027   -6.8662   -0.4849 C.ar      1 <0>        -0.0528
     12 C9         -2.6954   -8.2358   -0.6072 C.ar      1 <0>        -0.1525
     13 C10        -3.8934   -8.9490   -0.6286 C.ar      1 <0>         0.1663
     14 C11        -5.1013   -8.2758   -0.5238 C.ar      1 <0>        -0.1612
     15 C12        -5.1159   -6.9009   -0.3976 C.ar      1 <0>        -0.0139
     16 C13        -6.4156   -9.0151   -0.5318 C.3       1 <0>        -0.0689
     17 C14        -6.2125  -10.4215   -1.1008 C.3       1 <0>        -0.0338
     18 C15        -4.9991  -11.0518   -0.4054 C.3       1 <0>         0.0746
     19 O2         -3.8375  -10.2989   -0.7564 O.3       1 <0>        -0.3018
     20 C16        -7.4389  -11.2573   -0.8390 C.2       1 <0>         0.0859
     21 N3         -7.9673  -11.5596    0.3108 N.2       1 <0>        -0.4970
     22 C17        -9.0752  -12.3221    0.4151 C.ar      1 <0>         0.0652
     23 C18        -9.7761  -12.7439    1.5655 C.ar      1 <0>        -0.0456
     24 C19       -10.8864  -13.5200    1.4568 C.ar      1 <0>        -0.1111
     25 C20       -11.3728  -13.9274    0.2107 C.ar      1 <0>         0.0421
     26 C21       -10.7049  -13.5287   -0.9449 C.ar      1 <0>        -0.0696
     27 C22        -9.5842  -12.7449   -0.8346 C.ar      1 <0>        -0.1492
     28 S1         -8.4383  -12.0044   -1.9684 S.3       1 <0>         0.0995
     29 C23       -12.5876  -14.7762    0.1203 C.2       1 <0>        -0.2107
     30 C24       -13.3342  -15.2294    1.1684 C.2       1 <0>         0.0883
     31 N4        -14.3460  -15.9631    0.6614 N.pl3     1 <0>        -0.4681
     32 H1        -15.0371  -16.4103    1.1746 H         1 <0>         0.4456
     33 N5        -14.2271  -15.9670   -0.7337 N.2       1 <0>        -0.2864
     34 C25       -13.1823  -15.2548   -1.0634 C.2       1 <0>         0.0716
     35 H2          1.0047    1.8421    0.0024 H         1 <0>         0.1255
     36 H3         -0.5450    1.8259   -0.8730 H         1 <0>         0.1246
     37 H4         -0.5280    1.8163    0.9069 H         1 <0>         0.1230
     38 H5          1.7352   -0.1134    1.1844 H         1 <0>         0.1256
     39 H6          0.2024   -0.1392    2.0889 H         1 <0>         0.1236
     40 H7          0.7273   -1.5806    1.1861 H         1 <0>         0.1239
     41 H8         -1.8584   -0.2358    0.9500 H         1 <0>         0.1348
     42 H9         -1.9290   -0.0808   -0.8218 H         1 <0>         0.1361
     43 H10        -0.8762   -2.3132   -1.0592 H         1 <0>         0.0954
     44 H11        -0.8055   -2.4683    0.7126 H         1 <0>         0.0954
     45 H12        -3.2761   -2.2894    0.8267 H         1 <0>         0.0791
     46 H13        -3.3467   -2.1344   -0.9450 H         1 <0>         0.0795
     47 H14        -1.9320   -4.4959   -0.3140 H         1 <0>         0.4022
     48 H15        -1.7717   -6.3190   -0.4684 H         1 <0>         0.1290
     49 H16        -1.7559   -8.7624   -0.6875 H         1 <0>         0.1415
     50 H17        -6.0571   -6.3779   -0.3145 H         1 <0>         0.1413
     51 H18        -6.7972   -9.0875    0.4866 H         1 <0>         0.0969
     52 H19        -7.1324   -8.4740   -1.1494 H         1 <0>         0.0928
     53 H20        -6.0307  -10.3610   -2.1738 H         1 <0>         0.1138
     54 H21        -5.1408  -11.0259    0.6750 H         1 <0>         0.0841
     55 H22        -4.8815  -12.0837   -0.7361 H         1 <0>         0.1185
     56 H23        -9.4259  -12.4468    2.5430 H         1 <0>         0.1352
     57 H24       -11.4044  -13.8291    2.3526 H         1 <0>         0.1346
     58 H25       -11.0648  -13.8335   -1.9165 H         1 <0>         0.1367
     59 H26       -13.1485  -15.0361    2.2146 H         1 <0>         0.1841
     60 H27       -12.8336  -15.0683   -2.0684 H         1 <0>         0.1883
     61 H28         0.4744   -0.3295   -0.8281 H         1 <0>         0.4275
@<TRIPOS>BOND
     1    1    2 1
     2    1   35 1
     3    1   36 1
     4    1   37 1
     5    2    3 1
     6    2    4 1
     7    2   61 1
     8    3   38 1
     9    3   39 1
    10    3   40 1
    11    4    5 1
    12    4   41 1
    13    4   42 1
    14    5    6 1
    15    5   43 1
    16    5   44 1
    17    6    7 1
    18    6   45 1
    19    6   46 1
    20    7    8 am
    21    7   47 1
    22    8    9 2
    23    8   10 1
    24   10   15 ar
    25   10   11 ar
    26   11   12 ar
    27   11   48 1
    28   12   13 ar
    29   12   49 1
    30   13   19 1
    31   13   14 ar
    32   14   15 ar
    33   14   16 1
    34   15   50 1
    35   16   17 1
    36   16   51 1
    37   16   52 1
    38   17   18 1
    39   17   20 1
    40   17   53 1
    41   18   19 1
    42   18   54 1
    43   18   55 1
    44   20   28 1
    45   20   21 2
    46   21   22 1
    47   22   27 ar
    48   22   23 ar
    49   23   24 ar
    50   23   56 1
    51   24   25 ar
    52   24   57 1
    53   25   26 ar
    54   25   29 1
    55   26   27 ar
    56   26   58 1
    57   27   28 1
    58   29   34 1
    59   29   30 2
    60   30   31 1
    61   30   59 1
    62   31   32 1
    63   31   33 1
    64   33   34 2
    65   34   60 1
@<TRIPOS>MOLECULE
CHEMBL494088
   56    59     0     0     0
SMALL
USER_CHARGES

@<TRIPOS>ATOM
      1 C1         -0.0187    1.5258    0.0104 C.3       1 <0>        -0.1661
      2 C2          0.0021   -0.0041    0.0020 C.3       1 <0>         0.0996
      3 N1          0.6878   -0.4765   -1.2033 N.pl3     1 <0>        -0.4454
      4 C3          0.1084   -0.7452   -2.4220 C.ar      1 <0>         0.0734
      5 C4         -1.1885   -0.6848   -2.9333 C.ar      1 <0>         0.0967
      6 C5         -1.4068   -1.0423   -4.2530 C.ar      1 <0>         0.0248
      7 N2         -0.4156   -1.4373   -5.0310 N.ar      1 <0>        -0.4294
      8 C6          0.8360   -1.5144   -4.6003 C.ar      1 <0>         0.2975
      9 C7          1.1491   -1.1685   -3.2692 C.ar      1 <0>         0.0644
     10 N3          2.2847   -1.1401   -2.5504 N.2       1 <0>        -0.4360
     11 C8          2.0279   -0.7287   -1.3319 C.2       1 <0>         0.3436
     12 C9          3.0324   -0.5655   -0.2583 C.2       1 <0>         0.1304
     13 C10         4.4724   -0.8253   -0.3802 C.2       1 <0>         0.3645
     14 N4          5.0335   -0.5707    0.7697 N.2       1 <0>        -0.3431
     15 O1          4.0212   -0.1472    1.6654 O.3       1 <0>         0.0500
     16 N5          2.7917   -0.1594    0.9619 N.2       1 <0>        -0.2479
     17 N6          5.1251   -1.2670   -1.5235 N.pl3     1 <0>        -0.8000
     18 C11         1.8718   -1.9500   -5.4881 C.1       1 <0>        -0.1218
     19 C12         2.7209   -2.3071   -6.2159 C.1       1 <0>        -0.0789
     20 C13         3.7856   -2.7549   -7.1284 C.3       1 <0>         0.2401
     21 C14         5.1250   -2.7540   -6.3888 C.3       1 <0>        -0.1769
     22 C15         3.4749   -4.1704   -7.6190 C.3       1 <0>        -0.1771
     23 O2          3.8585   -1.8683   -8.2468 O.3       1 <0>        -0.5531
     24 O3         -2.2219   -0.2814   -2.1476 O.3       1 <0>        -0.3051
     25 C16        -3.5183   -0.2475   -2.7478 C.3       1 <0>         0.0548
     26 C17        -4.5450    0.2275   -1.7176 C.3       1 <0>        -0.1103
     27 C18        -4.7437   -0.8465   -0.6235 C.3       1 <0>        -0.1424
     28 C19        -6.2693   -0.7928   -0.3583 C.3       1 <0>        -0.0050
     29 N7         -6.8412   -0.5615   -1.7095 N.4       1 <0>        -0.5173
     30 C20        -5.9272    0.3908   -2.3766 C.3       1 <0>        -0.0007
     31 H1          1.0039    1.9031    0.0027 H         1 <0>         0.0656
     32 H2         -0.5459    1.8868   -0.8726 H         1 <0>         0.0634
     33 H3         -0.5289    1.8773    0.9072 H         1 <0>         0.0863
     34 H4          0.5293   -0.3651    0.8851 H         1 <0>         0.1096
     35 H5         -1.0205   -0.3814    0.0098 H         1 <0>         0.1018
     36 H6         -2.4085   -0.9976   -4.6543 H         1 <0>         0.1707
     37 H7          4.6220   -1.4309   -2.3365 H         1 <0>         0.4311
     38 H8          6.0842   -1.4116   -1.5092 H         1 <0>         0.4213
     39 H9          5.0694   -3.4303   -5.5357 H         1 <0>         0.0723
     40 H10         5.9134   -3.0856   -7.0645 H         1 <0>         0.0748
     41 H11         5.3464   -1.7456   -6.0392 H         1 <0>         0.0709
     42 H12         2.5207   -4.1710   -8.1459 H         1 <0>         0.0706
     43 H13         4.2633   -4.5020   -8.2948 H         1 <0>         0.0746
     44 H14         3.4193   -4.8466   -6.7660 H         1 <0>         0.0728
     45 H15         4.5403   -2.1031   -8.8910 H         1 <0>         0.3895
     46 H16        -3.5089    0.4388   -3.5945 H         1 <0>         0.0837
     47 H17        -3.7852   -1.2465   -3.0928 H         1 <0>         0.0765
     48 H18        -4.2248    1.1691   -1.2717 H         1 <0>         0.1262
     49 H19        -4.4505   -1.8300   -0.9907 H         1 <0>         0.1013
     50 H20        -4.1864   -0.5878    0.2767 H         1 <0>         0.1212
     51 H21        -6.6220   -1.7391    0.0519 H         1 <0>         0.1411
     52 H22        -6.5148    0.0327    0.3098 H         1 <0>         0.1389
     53 H23        -6.8774   -1.4282   -2.2250 H         1 <0>         0.4331
     54 H24        -6.2869    1.4103   -2.2372 H         1 <0>         0.1437
     55 H25        -5.8613    0.1596   -3.4398 H         1 <0>         0.1384
     56 H26        -7.7645   -0.1620   -1.6328 H         1 <0>         0.4374
@<TRIPOS>BOND
     1    1    2 1
     2    1   31 1
     3    1   32 1
     4    1   33 1
     5    2    3 1
     6    2   34 1
     7    2   35 1
     8    3   11 1
     9    3    4 1
    10    4    9 ar
    11    4    5 ar
    12    5    6 ar
    13    5   24 1
    14    6    7 ar
    15    6   36 1
    16    7    8 ar
    17    8    9 ar
    18    8   18 1
    19    9   10 1
    20   10   11 2
    21   11   12 1
    22   12   16 2
    23   12   13 1
    24   13   14 2
    25   13   17 1
    26   14   15 1
    27   15   16 1
    28   17   37 1
    29   17   38 1
    30   18   19 3
    31   19   20 1
    32   20   21 1
    33   20   22 1
    34   20   23 1
    35   21   39 1
    36   21   40 1
    37   21   41 1
    38   22   42 1
    39   22   43 1
    40   22   44 1
    41   23   45 1
    42   24   25 1
    43   25   26 1
    44   25   46 1
    45   25   47 1
    46   26   30 1
    47   26   27 1
    48   26   48 1
    49   27   28 1
    50   27   49 1
    51   27   50 1
    52   28   29 1
    53   28   51 1
    54   28   52 1
    55   29   30 1
    56   29   53 1
    57   29   56 1
    58   30   54 1
    59   30   55 1
@<TRIPOS>MOLECULE
CHEMBL494088__1
   56    59     0     0     0
SMALL
USER_CHARGES

@<TRIPOS>ATOM
      1 C1         -0.0187    1.5258    0.0104 C.3       1 <0>        -0.1652
      2 C2          0.0021   -0.0041    0.0020 C.3       1 <0>         0.0985
      3 N1          0.6878   -0.4765   -1.2033 N.pl3     1 <0>        -0.4455
      4 C3          0.1084   -0.7452   -2.4220 C.ar      1 <0>         0.0736
      5 C4         -1.1885   -0.6848   -2.9333 C.ar      1 <0>         0.0971
      6 C5         -1.4068   -1.0423   -4.2530 C.ar      1 <0>         0.0255
      7 N2         -0.4156   -1.4373   -5.0310 N.ar      1 <0>        -0.4291
      8 C6          0.8360   -1.5144   -4.6003 C.ar      1 <0>         0.2972
      9 C7          1.1491   -1.1685   -3.2692 C.ar      1 <0>         0.0642
     10 N3          2.2847   -1.1401   -2.5504 N.2       1 <0>        -0.4358
     11 C8          2.0279   -0.7287   -1.3319 C.2       1 <0>         0.3431
     12 C9          3.0324   -0.5655   -0.2583 C.2       1 <0>         0.1308
     13 C10         4.4724   -0.8253   -0.3802 C.2       1 <0>         0.3646
     14 N4          5.0335   -0.5707    0.7697 N.2       1 <0>        -0.3432
     15 O1          4.0212   -0.1472    1.6654 O.3       1 <0>         0.0497
     16 N5          2.7917   -0.1594    0.9619 N.2       1 <0>        -0.2483
     17 N6          5.1251   -1.2670   -1.5235 N.pl3     1 <0>        -0.7999
     18 C11         1.8718   -1.9500   -5.4881 C.1       1 <0>        -0.1215
     19 C12         2.7209   -2.3071   -6.2159 C.1       1 <0>        -0.0793
     20 C13         3.7856   -2.7549   -7.1284 C.3       1 <0>         0.2402
     21 C14         5.1250   -2.7540   -6.3888 C.3       1 <0>        -0.1770
     22 C15         3.4749   -4.1704   -7.6190 C.3       1 <0>        -0.1771
     23 O2          3.8585   -1.8683   -8.2468 O.3       1 <0>        -0.5533
     24 O3         -2.2219   -0.2814   -2.1476 O.3       1 <0>        -0.3058
     25 C16        -3.5183   -0.2475   -2.7478 C.3       1 <0>         0.0596
     26 C17        -4.5450    0.2275   -1.7176 C.3       1 <0>        -0.1080
     27 C18        -4.3640    1.7392   -1.4196 C.3       1 <0>        -0.1408
     28 C19        -5.7896    2.1417   -0.9667 C.3       1 <0>        -0.0096
     29 N7         -6.6962    1.3517   -1.8269 N.4       1 <0>        -0.5130
     30 C20        -5.9732    0.1561   -2.2977 C.3       1 <0>        -0.0045
     31 H1          1.0039    1.9031    0.0027 H         1 <0>         0.0657
     32 H2         -0.5459    1.8868   -0.8726 H         1 <0>         0.0623
     33 H3         -0.5289    1.8773    0.9072 H         1 <0>         0.0855
     34 H4          0.5293   -0.3651    0.8851 H         1 <0>         0.1098
     35 H5         -1.0205   -0.3814    0.0098 H         1 <0>         0.1030
     36 H6         -2.4085   -0.9976   -4.6543 H         1 <0>         0.1714
     37 H7          4.6220   -1.4309   -2.3365 H         1 <0>         0.4311
     38 H8          6.0842   -1.4116   -1.5092 H         1 <0>         0.4213
     39 H9          5.0694   -3.4303   -5.5357 H         1 <0>         0.0726
     40 H10         5.9134   -3.0856   -7.0645 H         1 <0>         0.0748
     41 H11         5.3464   -1.7456   -6.0392 H         1 <0>         0.0708
     42 H12         2.5207   -4.1710   -8.1459 H         1 <0>         0.0705
     43 H13         4.2633   -4.5020   -8.2948 H         1 <0>         0.0745
     44 H14         3.4193   -4.8466   -6.7660 H         1 <0>         0.0731
     45 H15         4.5403   -2.1031   -8.8910 H         1 <0>         0.3894
     46 H16        -3.5089    0.4388   -3.5945 H         1 <0>         0.0798
     47 H17        -3.7852   -1.2465   -3.0928 H         1 <0>         0.0838
     48 H18        -4.4709   -0.3601   -0.8025 H         1 <0>         0.1218
     49 H19        -3.6412    1.8955   -0.6188 H         1 <0>         0.1219
     50 H20        -4.0720    2.2821   -2.3185 H         1 <0>         0.1020
     51 H21        -5.9415    1.8847    0.0816 H         1 <0>         0.1370
     52 H22        -5.9508    3.2082   -1.1240 H         1 <0>         0.1403
     53 H23        -7.5079    1.0711   -1.2973 H         1 <0>         0.4358
     54 H24        -5.9314    0.1530   -3.3869 H         1 <0>         0.1378
     55 H25        -6.4737   -0.7442   -1.9411 H         1 <0>         0.1427
     56 H26        -6.9840    1.9080   -2.6180 H         1 <0>         0.4340
@<TRIPOS>BOND
     1    1    2 1
     2    1   31 1
     3    1   32 1
     4    1   33 1
     5    2    3 1
     6    2   34 1
     7    2   35 1
     8    3   11 1
     9    3    4 1
    10    4    9 ar
    11    4    5 ar
    12    5    6 ar
    13    5   24 1
    14    6    7 ar
    15    6   36 1
    16    7    8 ar
    17    8    9 ar
    18    8   18 1
    19    9   10 1
    20   10   11 2
    21   11   12 1
    22   12   16 2
    23   12   13 1
    24   13   14 2
    25   13   17 1
    26   14   15 1
    27   15   16 1
    28   17   37 1
    29   17   38 1
    30   18   19 3
    31   19   20 1
    32   20   21 1
    33   20   22 1
    34   20   23 1
    35   21   39 1
    36   21   40 1
    37   21   41 1
    38   22   42 1
    39   22   43 1
    40   22   44 1
    41   23   45 1
    42   24   25 1
    43   25   26 1
    44   25   46 1
    45   25   47 1
    46   26   30 1
    47   26   27 1
    48   26   48 1
    49   27   28 1
    50   27   49 1
    51   27   50 1
    52   28   29 1
    53   28   51 1
    54   28   52 1
    55   29   30 1
    56   29   53 1
    57   29   56 1
    58   30   54 1
    59   30   55 1
@<TRIPOS>MOLECULE
CHEMBL225166
   43    46     0     0     0
SMALL
USER_CHARGES

@<TRIPOS>ATOM
      1 C1         -0.0168    1.3909    0.0097 C.ar      1 <0>        -0.1271
      2 C2          1.1468    2.1049    0.0024 C.ar      1 <0>        -0.0939
      3 C3          2.3718    1.4432   -0.0129 C.ar      1 <0>         0.0955
      4 C4          2.4029    0.0355   -0.0207 C.ar      1 <0>        -0.1362
      5 C5          1.2032   -0.6850   -0.0131 C.ar      1 <0>        -0.1109
      6 C6          0.0021   -0.0041    0.0020 C.ar      1 <0>         0.1606
      7 N1         -1.2023   -0.7168    0.0097 N.pl3     1 <0>        -0.7586
      8 C7         -2.4787    0.0020    0.0258 C.3       1 <0>         0.1380
      9 C8         -2.8515    0.3500    1.4698 C.3       1 <0>        -0.1543
     10 C9         -3.0522   -0.9457    2.2612 C.3       1 <0>        -0.1398
     11 C10        -4.1234   -1.7956    1.5744 C.3       1 <0>        -0.0142
     12 N2         -3.6963   -2.1167    0.2073 N.4       1 <0>        -0.3816
     13 C11        -3.5712   -0.8831   -0.5781 C.3       1 <0>        -0.0139
     14 C12        -4.6908   -2.9967   -0.4209 C.3       1 <0>         0.0587
     15 C13        -4.7254   -4.3158    0.3070 C.2       1 <0>        -0.1875
     16 C14        -3.8994   -5.3536   -0.0822 C.2       1 <0>        -0.1687
     17 C15        -3.9554   -6.5271    0.5937 C.2       1 <0>        -0.1519
     18 S1         -5.2041   -6.1860    1.8232 S.3       1 <0>         0.1256
     19 C16        -5.5629   -4.5005    1.3566 C.2       1 <0>        -0.1584
     20 C17         3.8119   -0.3442   -0.0367 C.2       1 <0>         0.0654
     21 N3          4.5194    0.7494   -0.0378 N.2       1 <0>        -0.2339
     22 N4          3.6776    1.8662   -0.0235 N.pl3     1 <0>        -0.5073
     23 H1          3.9697    2.7912   -0.0219 H         1 <0>         0.4428
     24 H2         -0.9627    1.9119    0.0261 H         1 <0>         0.1293
     25 H3          1.1172    3.1844    0.0082 H         1 <0>         0.1316
     26 H4          1.2168   -1.7649   -0.0194 H         1 <0>         0.1269
     27 H5         -1.1919   -1.6867    0.0044 H         1 <0>         0.3878
     28 H6         -2.3881    0.9179   -0.5582 H         1 <0>         0.1229
     29 H7         -2.0498    0.9333    1.9227 H         1 <0>         0.0983
     30 H8         -3.7749    0.9291    1.4784 H         1 <0>         0.0895
     31 H9         -2.1144   -1.5001    2.2956 H         1 <0>         0.0877
     32 H10        -3.3721   -0.7068    3.2754 H         1 <0>         0.1113
     33 H11        -4.2690   -2.7188    2.1354 H         1 <0>         0.1302
     34 H12        -5.0608   -1.2403    1.5408 H         1 <0>         0.1304
     35 H13        -4.5203   -0.3473   -0.5659 H         1 <0>         0.1435
     36 H14        -3.3090   -1.1325   -1.6063 H         1 <0>         0.1372
     37 H15        -5.6737   -2.5282   -0.3707 H         1 <0>         0.1370
     38 H16        -4.4208   -3.1640   -1.4635 H         1 <0>         0.1367
     39 H17        -3.2199   -5.2313   -0.9126 H         1 <0>         0.1424
     40 H18        -3.3913   -7.4335    0.4306 H         1 <0>         0.1974
     41 H19        -6.2658   -3.8081    1.7960 H         1 <0>         0.1960
     42 H20         4.1990   -1.3524   -0.0457 H         1 <0>         0.1985
     43 H21        -2.8044   -2.5875    0.2366 H         1 <0>         0.4170
@<TRIPOS>BOND
     1    1    6 ar
     2    1    2 ar
     3    1   24 1
     4    2    3 ar
     5    2   25 1
     6    3   22 1
     7    3    4 ar
     8    4    5 ar
     9    4   20 1
    10    5    6 ar
    11    5   26 1
    12    6    7 1
    13    7    8 1
    14    7   27 1
    15    8   13 1
    16    8    9 1
    17    8   28 1
    18    9   10 1
    19    9   29 1
    20    9   30 1
    21   10   11 1
    22   10   31 1
    23   10   32 1
    24   11   12 1
    25   11   33 1
    26   11   34 1
    27   12   13 1
    28   12   14 1
    29   12   43 1
    30   13   35 1
    31   13   36 1
    32   14   15 1
    33   14   37 1
    34   14   38 1
    35   15   19 2
    36   15   16 1
    37   16   17 2
    38   16   39 1
    39   17   18 1
    40   17   40 1
    41   18   19 1
    42   19   41 1
    43   20   21 2
    44   20   42 1
    45   21   22 1
    46   22   23 1
@<TRIPOS>MOLECULE
CHEMBL225166__1
   43    46     0     0     0
SMALL
USER_CHARGES

@<TRIPOS>ATOM
      1 C1         -0.0169    1.3981    0.0097 C.ar      1 <0>        -0.1239
      2 C2          1.1255    2.1272    0.0027 C.ar      1 <0>        -0.0519
      3 C3          2.3749    1.4697   -0.0127 C.ar      1 <0>         0.0754
      4 C4          2.3982   -0.0010   -0.0209 C.ar      1 <0>        -0.1734
      5 C5          1.1723   -0.7013   -0.0134 C.ar      1 <0>        -0.1249
      6 C6          0.0021   -0.0041    0.0020 C.ar      1 <0>         0.1638
      7 N1         -1.2096   -0.7036    0.0103 N.pl3     1 <0>        -0.7603
      8 C7         -2.4782    0.0290    0.0269 C.3       1 <0>         0.1372
      9 C8         -2.8465    0.3811    1.4710 C.3       1 <0>        -0.1544
     10 C9         -3.0609   -0.9122    2.2626 C.3       1 <0>        -0.1396
     11 C10        -4.1415   -1.7506    1.5765 C.3       1 <0>        -0.0139
     12 N2         -3.7185   -2.0765    0.2092 N.4       1 <0>        -0.3815
     13 C11        -3.5804   -0.8443   -0.5764 C.3       1 <0>        -0.0138
     14 C12        -4.7227   -2.9457   -0.4184 C.3       1 <0>         0.0586
     15 C13        -4.7712   -4.2643    0.3096 C.2       1 <0>        -0.1873
     16 C14        -3.9566   -5.3110   -0.0799 C.2       1 <0>        -0.1684
     17 C15        -4.0250   -6.4838    0.5962 C.2       1 <0>        -0.1525
     18 S1         -5.2694   -6.1291    1.8262 S.3       1 <0>         0.1250
     19 C16        -5.6102   -4.4399    1.3596 C.2       1 <0>        -0.1580
     20 C17         3.7299   -0.3711   -0.0356 C.2       1 <0>         0.0696
     21 N3          4.4689    0.7483   -0.0366 N.pl3     1 <0>        -0.4185
     22 N4          3.6337    1.8712   -0.0226 N.2       1 <0>        -0.2888
     23 H1          5.4385    0.7755   -0.0455 H         1 <0>         0.4480
     24 H2         -0.9674    1.9107    0.0262 H         1 <0>         0.1277
     25 H3          1.0805    3.2062    0.0086 H         1 <0>         0.1357
     26 H4          1.1624   -1.7812   -0.0193 H         1 <0>         0.1198
     27 H5         -1.2096   -1.6735    0.0051 H         1 <0>         0.3865
     28 H6         -2.3779    0.9437   -0.5573 H         1 <0>         0.1234
     29 H7         -2.0384    0.9557    1.9235 H         1 <0>         0.0988
     30 H8         -3.7636    0.9702    1.4800 H         1 <0>         0.0891
     31 H9         -2.1291   -1.4768    2.2967 H         1 <0>         0.0876
     32 H10        -3.3776   -0.6698    3.2770 H         1 <0>         0.1110
     33 H11        -4.2967   -2.6721    2.1376 H         1 <0>         0.1297
     34 H12        -5.0728   -1.1853    1.5431 H         1 <0>         0.1302
     35 H13        -4.5237   -0.2983   -0.5639 H         1 <0>         0.1431
     36 H14        -3.3214   -1.0967   -1.6047 H         1 <0>         0.1368
     37 H15        -5.7004   -2.4666   -0.3679 H         1 <0>         0.1369
     38 H16        -4.4550   -3.1161   -1.4612 H         1 <0>         0.1366
     39 H17        -3.2762   -5.1961   -0.9106 H         1 <0>         0.1423
     40 H18        -3.4707   -7.3962    0.4329 H         1 <0>         0.1972
     41 H19        -6.3053   -3.7399    1.7992 H         1 <0>         0.1960
     42 H20         4.1083   -1.3826   -0.0444 H         1 <0>         0.1883
     43 H21        -2.8316   -2.5569    0.2381 H         1 <0>         0.4170
@<TRIPOS>BOND
     1    1    6 ar
     2    1    2 ar
     3    1   24 1
     4    2    3 ar
     5    2   25 1
     6    3    4 ar
     7    3   22 2
     8    4    5 ar
     9    4   20 2
    10    5    6 ar
    11    5   26 1
    12    6    7 1
    13    7    8 1
    14    7   27 1
    15    8   13 1
    16    8    9 1
    17    8   28 1
    18    9   10 1
    19    9   29 1
    20    9   30 1
    21   10   11 1
    22   10   31 1
    23   10   32 1
    24   11   12 1
    25   11   33 1
    26   11   34 1
    27   12   13 1
    28   12   14 1
    29   12   43 1
    30   13   35 1
    31   13   36 1
    32   14   15 1
    33   14   37 1
    34   14   38 1
    35   15   19 2
    36   15   16 1
    37   16   17 2
    38   16   39 1
    39   17   18 1
    40   17   40 1
    41   18   19 1
    42   19   41 1
    43   20   42 1
    44   20   21 1
    45   21   23 1
    46   21   22 1
@<TRIPOS>MOLECULE
CHEMBL225166__2
   43    46     0     0     0
SMALL
USER_CHARGES

@<TRIPOS>ATOM
      1 C1         -0.0168    1.3909    0.0097 C.ar      1 <0>        -0.1317
      2 C2          1.1468    2.1049    0.0024 C.ar      1 <0>        -0.0953
      3 C3          2.3718    1.4432   -0.0129 C.ar      1 <0>         0.0932
      4 C4          2.4029    0.0355   -0.0207 C.ar      1 <0>        -0.1345
      5 C5          1.2032   -0.6850   -0.0131 C.ar      1 <0>        -0.1090
      6 C6          0.0021   -0.0041    0.0020 C.ar      1 <0>         0.1617
      7 N1         -1.2023   -0.7168    0.0097 N.pl3     1 <0>        -0.7453
      8 C7         -2.4787    0.0020    0.0258 C.3       1 <0>         0.1441
      9 C8         -2.8790    0.3654   -1.4070 C.3       1 <0>        -0.1570
     10 C9         -4.2506    1.0463   -1.3862 C.3       1 <0>        -0.1421
     11 C10        -5.2657    0.1160   -0.7188 C.3       1 <0>        -0.0150
     12 N2         -4.8402   -0.1726    0.6561 N.4       1 <0>        -0.3766
     13 C11        -3.5595   -0.8896    0.6409 C.3       1 <0>        -0.0171
     14 C12        -5.8563   -1.0021    1.3176 C.3       1 <0>         0.0603
     15 C13        -7.1357   -0.2172    1.4520 C.2       1 <0>        -0.1869
     16 C14        -7.3692    0.5573    2.5728 C.2       1 <0>        -0.1681
     17 C15        -8.5303    1.2508    2.6624 C.2       1 <0>        -0.1521
     18 S1         -9.3391    0.8162    1.1313 S.3       1 <0>         0.1253
     19 C16        -8.0724   -0.2559    0.4730 C.2       1 <0>        -0.1586
     20 C17         3.8119   -0.3442   -0.0367 C.2       1 <0>         0.0667
     21 N3          4.5194    0.7494   -0.0378 N.2       1 <0>        -0.2347
     22 N4          3.6776    1.8662   -0.0235 N.pl3     1 <0>        -0.5086
     23 H1          3.9697    2.7912   -0.0219 H         1 <0>         0.4422
     24 H2         -0.9627    1.9119    0.0261 H         1 <0>         0.1252
     25 H3          1.1172    3.1844    0.0082 H         1 <0>         0.1301
     26 H4          1.2168   -1.7649   -0.0194 H         1 <0>         0.1302
     27 H5         -1.1919   -1.6867    0.0044 H         1 <0>         0.4052
     28 H6         -2.3768    0.9116    0.6177 H         1 <0>         0.0971
     29 H7         -2.1405    1.0463   -1.8302 H         1 <0>         0.0976
     30 H8         -2.9306   -0.5399   -2.0118 H         1 <0>         0.0858
     31 H9         -4.1860    1.9779   -0.8240 H         1 <0>         0.0883
     32 H10        -4.5674    1.2579   -2.4075 H         1 <0>         0.1154
     33 H11        -6.2434    0.5976   -0.7025 H         1 <0>         0.1323
     34 H12        -5.3297   -0.8151   -1.2819 H         1 <0>         0.1297
     35 H13        -3.6599   -1.7993    0.0489 H         1 <0>         0.1339
     36 H14        -3.2775   -1.1504    1.6610 H         1 <0>         0.1365
     37 H15        -6.0394   -1.8963    0.7219 H         1 <0>         0.1359
     38 H16        -5.5016   -1.2909    2.3070 H         1 <0>         0.1372
     39 H17        -6.6374    0.6088    3.3655 H         1 <0>         0.1428
     40 H18        -8.8765    1.8981    3.4546 H         1 <0>         0.1973
     41 H19        -8.0570   -0.7960   -0.4621 H         1 <0>         0.1960
     42 H20         4.1990   -1.3524   -0.0457 H         1 <0>         0.1993
     43 H21        -4.7338    0.6933    1.1629 H         1 <0>         0.4233
@<TRIPOS>BOND
     1    1    6 ar
     2    1    2 ar
     3    1   24 1
     4    2    3 ar
     5    2   25 1
     6    3   22 1
     7    3    4 ar
     8    4    5 ar
     9    4   20 1
    10    5    6 ar
    11    5   26 1
    12    6    7 1
    13    7    8 1
    14    7   27 1
    15    8   13 1
    16    8    9 1
    17    8   28 1
    18    9   10 1
    19    9   29 1
    20    9   30 1
    21   10   11 1
    22   10   31 1
    23   10   32 1
    24   11   12 1
    25   11   33 1
    26   11   34 1
    27   12   13 1
    28   12   14 1
    29   12   43 1
    30   13   35 1
    31   13   36 1
    32   14   15 1
    33   14   37 1
    34   14   38 1
    35   15   19 2
    36   15   16 1
    37   16   17 2
    38   16   39 1
    39   17   18 1
    40   17   40 1
    41   18   19 1
    42   19   41 1
    43   20   21 2
    44   20   42 1
    45   21   22 1
    46   22   23 1
@<TRIPOS>MOLECULE
CHEMBL225166__3
   43    46     0     0     0
SMALL
USER_CHARGES

@<TRIPOS>ATOM
      1 C1         -0.0169    1.3981    0.0097 C.ar      1 <0>        -0.1253
      2 C2          1.1255    2.1272    0.0027 C.ar      1 <0>        -0.0540
      3 C3          2.3749    1.4697   -0.0127 C.ar      1 <0>         0.0742
      4 C4          2.3982   -0.0010   -0.0209 C.ar      1 <0>        -0.1719
      5 C5          1.1723   -0.7013   -0.0134 C.ar      1 <0>        -0.1229
      6 C6          0.0021   -0.0041    0.0020 C.ar      1 <0>         0.1622
      7 N1         -1.2096   -0.7036    0.0103 N.pl3     1 <0>        -0.7472
      8 C7         -2.4782    0.0290    0.0269 C.3       1 <0>         0.1434
      9 C8         -2.8752    0.3965   -1.4058 C.3       1 <0>        -0.1570
     10 C9         -4.2393    1.0922   -1.3845 C.3       1 <0>        -0.1423
     11 C10        -5.2641    0.1729   -0.7164 C.3       1 <0>        -0.0148
     12 N2         -4.8411   -0.1201    0.6582 N.4       1 <0>        -0.3766
     13 C11        -3.5682   -0.8509    0.6426 C.3       1 <0>        -0.0168
     14 C12        -5.8658   -0.9385    1.3203 C.3       1 <0>         0.0603
     15 C13        -7.1366   -0.1399    1.4552 C.2       1 <0>        -0.1867
     16 C14        -7.3612    0.6373    2.5760 C.2       1 <0>        -0.1680
     17 C15        -8.5147    1.3433    2.6660 C.2       1 <0>        -0.1522
     18 S1         -9.3288    0.9173    1.1354 S.3       1 <0>         0.1248
     19 C16        -8.0741   -0.1685    0.4766 C.2       1 <0>        -0.1587
     20 C17         3.7299   -0.3711   -0.0356 C.2       1 <0>         0.0702
     21 N3          4.4689    0.7483   -0.0366 N.pl3     1 <0>        -0.4187
     22 N4          3.6337    1.8712   -0.0226 N.2       1 <0>        -0.2907
     23 H1          5.4385    0.7755   -0.0455 H         1 <0>         0.4478
     24 H2         -0.9674    1.9107    0.0262 H         1 <0>         0.1236
     25 H3          1.0805    3.2062    0.0086 H         1 <0>         0.1343
     26 H4          1.1624   -1.7812   -0.0193 H         1 <0>         0.1231
     27 H5         -1.2096   -1.6735    0.0051 H         1 <0>         0.4038
     28 H6         -2.3662    0.9374    0.6187 H         1 <0>         0.0973
     29 H7         -2.1295    1.0693   -1.8294 H         1 <0>         0.0980
     30 H8         -2.9368   -0.5083   -2.0104 H         1 <0>         0.0852
     31 H9         -4.1644    2.0231   -0.8224 H         1 <0>         0.0885
     32 H10        -4.5542    1.3071   -2.4056 H         1 <0>         0.1150
     33 H11        -6.2365    0.6651   -0.6998 H         1 <0>         0.1320
     34 H12        -5.3384   -0.7575   -1.2794 H         1 <0>         0.1293
     35 H13        -3.6787   -1.7594    0.0507 H         1 <0>         0.1332
     36 H14        -3.2887   -1.1146    1.6626 H         1 <0>         0.1361
     37 H15        -6.0588   -1.8308    0.7248 H         1 <0>         0.1356
     38 H16        -5.5138   -1.2310    2.3096 H         1 <0>         0.1370
     39 H17        -6.6286    0.6809    3.3684 H         1 <0>         0.1429
     40 H18        -8.8536    1.9943    3.4583 H         1 <0>         0.1973
     41 H19        -8.0649   -0.7089   -0.4585 H         1 <0>         0.1959
     42 H20         4.1083   -1.3826   -0.0444 H         1 <0>         0.1892
     43 H21        -4.7251    0.7447    1.1649 H         1 <0>         0.4235
@<TRIPOS>BOND
     1    1    6 ar
     2    1    2 ar
     3    1   24 1
     4    2    3 ar
     5    2   25 1
     6    3    4 ar
     7    3   22 2
     8    4    5 ar
     9    4   20 2
    10    5    6 ar
    11    5   26 1
    12    6    7 1
    13    7    8 1
    14    7   27 1
    15    8   13 1
    16    8    9 1
    17    8   28 1
    18    9   10 1
    19    9   29 1
    20    9   30 1
    21   10   11 1
    22   10   31 1
    23   10   32 1
    24   11   12 1
    25   11   33 1
    26   11   34 1
    27   12   13 1
    28   12   14 1
    29   12   43 1
    30   13   35 1
    31   13   36 1
    32   14   15 1
    33   14   37 1
    34   14   38 1
    35   15   19 2
    36   15   16 1
    37   16   17 2
    38   16   39 1
    39   17   18 1
    40   17   40 1
    41   18   19 1
    42   19   41 1
    43   20   42 1
    44   20   21 1
    45   21   23 1
    46   21   22 1
@<TRIPOS>MOLECULE
CHEMBL225167
   43    46     0     0     0
SMALL
USER_CHARGES

@<TRIPOS>ATOM
      1 C1         -0.0162    1.3409    0.0094 C.2       1 <0>        -0.2196
      2 C2          1.3313    1.7689   -0.0012 C.2       1 <0>        -0.1399
      3 C3          2.0923    0.6599   -0.0144 C.2       1 <0>        -0.1122
      4 O1          1.2819   -0.4111   -0.0124 O.3       1 <0>        -0.1677
      5 C4          0.0021   -0.0041    0.0020 C.2       1 <0>         0.0174
      6 C5          3.5989    0.6249   -0.0294 C.3       1 <0>         0.0906
      7 N1          4.1020    0.6064    1.3506 N.4       1 <0>        -0.3857
      8 C6          3.7410    1.8627    2.0183 C.3       1 <0>        -0.0158
      9 C7          4.1917    1.8158    3.4799 C.3       1 <0>        -0.1396
     10 C8          5.7102    1.6250    3.5343 C.3       1 <0>        -0.1547
     11 C9          6.0824    0.3507    2.7709 C.3       1 <0>         0.1384
     12 C10         5.5616    0.4519    1.3356 C.3       1 <0>        -0.0141
     13 N2          5.4769   -0.8090    3.4304 N.pl3     1 <0>        -0.7592
     14 C11         6.1302   -1.4230    4.5049 C.ar      1 <0>         0.1600
     15 C12         7.3555   -0.9243    4.9492 C.ar      1 <0>        -0.1269
     16 C13         8.0090   -1.5089    5.9952 C.ar      1 <0>        -0.0938
     17 C14         7.4555   -2.6161    6.6335 C.ar      1 <0>         0.0956
     18 C15         6.2197   -3.1274    6.1941 C.ar      1 <0>        -0.1365
     19 C16         5.5566   -2.5155    5.1238 C.ar      1 <0>        -0.1105
     20 C17         5.9181   -4.2681    7.0528 C.2       1 <0>         0.0656
     21 N3          6.8951   -4.3946    7.9049 N.2       1 <0>        -0.2340
     22 N4          7.8571   -3.4039    7.6834 N.pl3     1 <0>        -0.5072
     23 H1          8.6767   -3.2918    8.1899 H         1 <0>         0.4429
     24 H2         -0.8920    1.9726    0.0252 H         1 <0>         0.1642
     25 H3          1.6822    2.7903    0.0004 H         1 <0>         0.1613
     26 H4         -0.8653   -0.6475    0.0072 H         1 <0>         0.2192
     27 H5          3.9364   -0.2706   -0.5512 H         1 <0>         0.1463
     28 H6          3.9777    1.5089   -0.5424 H         1 <0>         0.1568
     29 H7          4.2311    2.6956    1.5141 H         1 <0>         0.1330
     30 H8          2.6603    1.9987    1.9760 H         1 <0>         0.1312
     31 H9          3.9243    2.7502    3.9734 H         1 <0>         0.1126
     32 H10         3.7020    0.9834    3.9852 H         1 <0>         0.0880
     33 H11         6.2019    2.4822    3.0742 H         1 <0>         0.0904
     34 H12         6.0292    1.5343    4.5726 H         1 <0>         0.0991
     35 H13         7.1664    0.2378    2.7577 H         1 <0>         0.1244
     36 H14         5.8251   -0.4537    0.7893 H         1 <0>         0.1394
     37 H15         6.0129    1.3148    0.8459 H         1 <0>         0.1461
     38 H16         4.6232   -1.1512    3.1221 H         1 <0>         0.3880
     39 H17         7.7918   -0.0662    4.4595 H         1 <0>         0.1294
     40 H18         8.9568   -1.1125    6.3282 H         1 <0>         0.1317
     41 H19         4.6060   -2.8977    4.7823 H         1 <0>         0.1270
     42 H20         5.0410   -4.8953    6.9928 H         1 <0>         0.1986
     43 H21         3.6880   -0.1676    1.8481 H         1 <0>         0.4196
@<TRIPOS>BOND
     1    1    5 2
     2    1    2 1
     3    1   24 1
     4    2    3 2
     5    2   25 1
     6    3    4 1
     7    3    6 1
     8    4    5 1
     9    5   26 1
    10    6    7 1
    11    6   27 1
    12    6   28 1
    13    7   12 1
    14    7    8 1
    15    7   43 1
    16    8    9 1
    17    8   29 1
    18    8   30 1
    19    9   10 1
    20    9   31 1
    21    9   32 1
    22   10   11 1
    23   10   33 1
    24   10   34 1
    25   11   12 1
    26   11   13 1
    27   11   35 1
    28   12   36 1
    29   12   37 1
    30   13   14 1
    31   13   38 1
    32   14   19 ar
    33   14   15 ar
    34   15   16 ar
    35   15   39 1
    36   16   17 ar
    37   16   40 1
    38   17   22 1
    39   17   18 ar
    40   18   19 ar
    41   18   20 1
    42   19   41 1
    43   20   21 2
    44   20   42 1
    45   21   22 1
    46   22   23 1
@<TRIPOS>MOLECULE
CHEMBL225167__1
   43    46     0     0     0
SMALL
USER_CHARGES

@<TRIPOS>ATOM
      1 C1         -0.0162    1.3409    0.0094 C.2       1 <0>        -0.2194
      2 C2          1.3313    1.7689   -0.0012 C.2       1 <0>        -0.1401
      3 C3          2.0923    0.6599   -0.0144 C.2       1 <0>        -0.1116
      4 O1          1.2819   -0.4111   -0.0124 O.3       1 <0>        -0.1678
      5 C4          0.0021   -0.0041    0.0020 C.2       1 <0>         0.0167
      6 C5          3.5989    0.6249   -0.0294 C.3       1 <0>         0.0905
      7 N1          4.1020    0.6064    1.3506 N.4       1 <0>        -0.3855
      8 C6          3.7410    1.8627    2.0183 C.3       1 <0>        -0.0157
      9 C7          4.1917    1.8158    3.4799 C.3       1 <0>        -0.1393
     10 C8          5.7102    1.6250    3.5343 C.3       1 <0>        -0.1549
     11 C9          6.0824    0.3507    2.7709 C.3       1 <0>         0.1376
     12 C10         5.5616    0.4519    1.3356 C.3       1 <0>        -0.0141
     13 N2          5.4769   -0.8090    3.4304 N.pl3     1 <0>        -0.7608
     14 C11         6.1300   -1.4228    4.5046 C.ar      1 <0>         0.1631
     15 C12         7.3607   -0.9110    4.9404 C.ar      1 <0>        -0.1238
     16 C13         8.0373   -1.4648    5.9759 C.ar      1 <0>        -0.0518
     17 C14         7.4998   -2.5874    6.6423 C.ar      1 <0>         0.0756
     18 C15         6.2091   -3.1267    6.1877 C.ar      1 <0>        -0.1737
     19 C16         5.5526   -2.5002    5.1061 C.ar      1 <0>        -0.1242
     20 C17         5.9265   -4.2058    7.0039 C.2       1 <0>         0.0700
     21 N3          6.9331   -4.3338    7.8812 N.pl3     1 <0>        -0.4184
     22 N4          7.8925   -3.3404    7.6546 N.2       1 <0>        -0.2889
     23 H1          6.9877   -5.0139    8.5707 H         1 <0>         0.4481
     24 H2         -0.8920    1.9726    0.0252 H         1 <0>         0.1641
     25 H3          1.6822    2.7903    0.0004 H         1 <0>         0.1614
     26 H4         -0.8653   -0.6475    0.0072 H         1 <0>         0.2190
     27 H5          3.9364   -0.2706   -0.5512 H         1 <0>         0.1462
     28 H6          3.9777    1.5089   -0.5424 H         1 <0>         0.1568
     29 H7          4.2311    2.6956    1.5141 H         1 <0>         0.1328
     30 H8          2.6603    1.9987    1.9760 H         1 <0>         0.1307
     31 H9          3.9243    2.7502    3.9734 H         1 <0>         0.1122
     32 H10         3.7020    0.9834    3.9852 H         1 <0>         0.0879
     33 H11         6.2019    2.4822    3.0742 H         1 <0>         0.0899
     34 H12         6.0292    1.5343    4.5726 H         1 <0>         0.0997
     35 H13         7.1664    0.2378    2.7577 H         1 <0>         0.1248
     36 H14         5.8251   -0.4537    0.7893 H         1 <0>         0.1391
     37 H15         6.0129    1.3148    0.8459 H         1 <0>         0.1457
     38 H16         4.6232   -1.1512    3.1221 H         1 <0>         0.3866
     39 H17         7.7807   -0.0526    4.4372 H         1 <0>         0.1278
     40 H18         8.9836   -1.0495    6.2897 H         1 <0>         0.1358
     41 H19         4.6020   -2.8744    4.7558 H         1 <0>         0.1199
     42 H20         5.0501   -4.8343    6.9459 H         1 <0>         0.1885
     43 H21         3.6880   -0.1676    1.8481 H         1 <0>         0.4196
@<TRIPOS>BOND
     1    1    5 2
     2    1    2 1
     3    1   24 1
     4    2    3 2
     5    2   25 1
     6    3    4 1
     7    3    6 1
     8    4    5 1
     9    5   26 1
    10    6    7 1
    11    6   27 1
    12    6   28 1
    13    7   12 1
    14    7    8 1
    15    7   43 1
    16    8    9 1
    17    8   29 1
    18    8   30 1
    19    9   10 1
    20    9   31 1
    21    9   32 1
    22   10   11 1
    23   10   33 1
    24   10   34 1
    25   11   12 1
    26   11   13 1
    27   11   35 1
    28   12   36 1
    29   12   37 1
    30   13   14 1
    31   13   38 1
    32   14   19 ar
    33   14   15 ar
    34   15   16 ar
    35   15   39 1
    36   16   17 ar
    37   16   40 1
    38   17   18 ar
    39   17   22 2
    40   18   19 ar
    41   18   20 2
    42   19   41 1
    43   20   42 1
    44   20   21 1
    45   21   23 1
    46   21   22 1
@<TRIPOS>MOLECULE
CHEMBL225167__2
   43    46     0     0     0
SMALL
USER_CHARGES

@<TRIPOS>ATOM
      1 C1         -0.0162    1.3409    0.0094 C.2       1 <0>        -0.2197
      2 C2          1.3313    1.7689   -0.0012 C.2       1 <0>        -0.1401
      3 C3          2.0923    0.6599   -0.0144 C.2       1 <0>        -0.1115
      4 O1          1.2819   -0.4111   -0.0124 O.3       1 <0>        -0.1675
      5 C4          0.0021   -0.0041    0.0020 C.2       1 <0>         0.0177
      6 C5          3.5989    0.6249   -0.0294 C.3       1 <0>         0.0922
      7 N1          4.1020    0.6064    1.3506 N.4       1 <0>        -0.3804
      8 C6          3.7410    1.8627    2.0183 C.3       1 <0>        -0.0167
      9 C7          4.1917    1.8158    3.4799 C.3       1 <0>        -0.1417
     10 C8          5.7102    1.6250    3.5343 C.3       1 <0>        -0.1574
     11 C9          6.0824    0.3507    2.7709 C.3       1 <0>         0.1443
     12 C10         5.5616    0.4519    1.3356 C.3       1 <0>        -0.0174
     13 N2          7.5394    0.1990    2.7532 N.pl3     1 <0>        -0.7451
     14 C11         8.1921   -0.4153    3.8279 C.ar      1 <0>         0.1613
     15 C12         7.4511   -0.8872    4.9123 C.ar      1 <0>        -0.1316
     16 C13         8.0685   -1.4888    5.9705 C.ar      1 <0>        -0.0950
     17 C14         9.4532   -1.6386    5.9783 C.ar      1 <0>         0.0934
     18 C15        10.2106   -1.1667    4.8895 C.ar      1 <0>        -0.1347
     19 C16         9.5651   -0.5565    3.8076 C.ar      1 <0>        -0.1086
     20 C17        11.6048   -1.4692    5.1970 C.2       1 <0>         0.0668
     21 N3         11.6377   -2.0605    6.3571 N.2       1 <0>        -0.2348
     22 N4         10.3425   -2.1841    6.8702 N.pl3     1 <0>        -0.5083
     23 H1         10.1101   -2.5897    7.7201 H         1 <0>         0.4422
     24 H2         -0.8920    1.9726    0.0252 H         1 <0>         0.1642
     25 H3          1.6822    2.7903    0.0004 H         1 <0>         0.1614
     26 H4         -0.8653   -0.6475    0.0072 H         1 <0>         0.2191
     27 H5          3.9364   -0.2706   -0.5512 H         1 <0>         0.1468
     28 H6          3.9777    1.5089   -0.5424 H         1 <0>         0.1558
     29 H7          4.2311    2.6956    1.5141 H         1 <0>         0.1322
     30 H8          2.6603    1.9987    1.9760 H         1 <0>         0.1333
     31 H9          3.9243    2.7502    3.9734 H         1 <0>         0.1166
     32 H10         3.7020    0.9834    3.9852 H         1 <0>         0.0886
     33 H11         6.2019    2.4822    3.0742 H         1 <0>         0.0867
     34 H12         6.0292    1.5343    4.5726 H         1 <0>         0.0984
     35 H13         5.6319   -0.5121    3.2616 H         1 <0>         0.0977
     36 H14         5.8251   -0.4537    0.7893 H         1 <0>         0.1388
     37 H15         6.0129    1.3148    0.8459 H         1 <0>         0.1364
     38 H16         8.0517    0.5243    1.9964 H         1 <0>         0.4055
     39 H17         6.3770   -0.7748    4.9143 H         1 <0>         0.1252
     40 H18         7.4825   -1.8490    6.8031 H         1 <0>         0.1302
     41 H19        10.1371   -0.1952    2.9658 H         1 <0>         0.1304
     42 H20        12.4572   -1.2435    4.5735 H         1 <0>         0.1994
     43 H21         3.6880   -0.1676    1.8481 H         1 <0>         0.4261
@<TRIPOS>BOND
     1    1    5 2
     2    1    2 1
     3    1   24 1
     4    2    3 2
     5    2   25 1
     6    3    4 1
     7    3    6 1
     8    4    5 1
     9    5   26 1
    10    6    7 1
    11    6   27 1
    12    6   28 1
    13    7   12 1
    14    7    8 1
    15    7   43 1
    16    8    9 1
    17    8   29 1
    18    8   30 1
    19    9   10 1
    20    9   31 1
    21    9   32 1
    22   10   11 1
    23   10   33 1
    24   10   34 1
    25   11   12 1
    26   11   13 1
    27   11   35 1
    28   12   36 1
    29   12   37 1
    30   13   14 1
    31   13   38 1
    32   14   19 ar
    33   14   15 ar
    34   15   16 ar
    35   15   39 1
    36   16   17 ar
    37   16   40 1
    38   17   22 1
    39   17   18 ar
    40   18   19 ar
    41   18   20 1
    42   19   41 1
    43   20   21 2
    44   20   42 1
    45   21   22 1
    46   22   23 1
@<TRIPOS>MOLECULE
CHEMBL225167__3
   43    46     0     0     0
SMALL
USER_CHARGES

@<TRIPOS>ATOM
      1 C1         -0.0162    1.3409    0.0094 C.2       1 <0>        -0.2198
      2 C2          1.3313    1.7689   -0.0012 C.2       1 <0>        -0.1404
      3 C3          2.0923    0.6599   -0.0144 C.2       1 <0>        -0.1111
      4 O1          1.2819   -0.4111   -0.0124 O.3       1 <0>        -0.1674
      5 C4          0.0021   -0.0041    0.0020 C.2       1 <0>         0.0175
      6 C5          3.5989    0.6249   -0.0294 C.3       1 <0>         0.0923
      7 N1          4.1020    0.6064    1.3506 N.4       1 <0>        -0.3805
      8 C6          3.7410    1.8627    2.0183 C.3       1 <0>        -0.0165
      9 C7          4.1917    1.8158    3.4799 C.3       1 <0>        -0.1420
     10 C8          5.7102    1.6250    3.5343 C.3       1 <0>        -0.1574
     11 C9          6.0824    0.3507    2.7709 C.3       1 <0>         0.1436
     12 C10         5.5616    0.4519    1.3356 C.3       1 <0>        -0.0172
     13 N2          7.5394    0.1990    2.7532 N.pl3     1 <0>        -0.7470
     14 C11         8.1919   -0.4151    3.8276 C.ar      1 <0>         0.1619
     15 C12         7.4347   -0.8846    4.9105 C.ar      1 <0>        -0.1255
     16 C13         8.0132   -1.4876    5.9775 C.ar      1 <0>        -0.0538
     17 C14         9.4148   -1.6538    6.0123 C.ar      1 <0>         0.0743
     18 C15        10.2119   -1.1625    4.8779 C.ar      1 <0>        -0.1721
     19 C16         9.5473   -0.5479    3.7945 C.ar      1 <0>        -0.1223
     20 C17        11.5310   -1.4518    5.1722 C.2       1 <0>         0.0705
     21 N3         11.5628   -2.0615    6.3666 N.pl3     1 <0>        -0.4187
     22 N4         10.2646   -2.1820    6.8752 N.2       1 <0>        -0.2906
     23 H1         12.3664   -2.3730    6.8117 H         1 <0>         0.4479
     24 H2         -0.8920    1.9726    0.0252 H         1 <0>         0.1641
     25 H3          1.6822    2.7903    0.0004 H         1 <0>         0.1613
     26 H4         -0.8653   -0.6475    0.0072 H         1 <0>         0.2191
     27 H5          3.9364   -0.2706   -0.5512 H         1 <0>         0.1466
     28 H6          3.9777    1.5089   -0.5424 H         1 <0>         0.1555
     29 H7          4.2311    2.6956    1.5141 H         1 <0>         0.1318
     30 H8          2.6603    1.9987    1.9760 H         1 <0>         0.1330
     31 H9          3.9243    2.7502    3.9734 H         1 <0>         0.1163
     32 H10         3.7020    0.9834    3.9852 H         1 <0>         0.0889
     33 H11         6.2019    2.4822    3.0742 H         1 <0>         0.0860
     34 H12         6.0292    1.5343    4.5726 H         1 <0>         0.0988
     35 H13         5.6319   -0.5121    3.2616 H         1 <0>         0.0980
     36 H14         5.8251   -0.4537    0.7893 H         1 <0>         0.1384
     37 H15         6.0129    1.3148    0.8459 H         1 <0>         0.1357
     38 H16         8.0517    0.5243    1.9964 H         1 <0>         0.4041
     39 H17         6.3618   -0.7620    4.8940 H         1 <0>         0.1236
     40 H18         7.4048   -1.8390    6.7978 H         1 <0>         0.1344
     41 H19        10.1094   -0.1823    2.9478 H         1 <0>         0.1233
     42 H20        12.3850   -1.2273    4.5503 H         1 <0>         0.1893
     43 H21         3.6880   -0.1676    1.8481 H         1 <0>         0.4262
@<TRIPOS>BOND
     1    1    5 2
     2    1    2 1
     3    1   24 1
     4    2    3 2
     5    2   25 1
     6    3    4 1
     7    3    6 1
     8    4    5 1
     9    5   26 1
    10    6    7 1
    11    6   27 1
    12    6   28 1
    13    7   12 1
    14    7    8 1
    15    7   43 1
    16    8    9 1
    17    8   29 1
    18    8   30 1
    19    9   10 1
    20    9   31 1
    21    9   32 1
    22   10   11 1
    23   10   33 1
    24   10   34 1
    25   11   12 1
    26   11   13 1
    27   11   35 1
    28   12   36 1
    29   12   37 1
    30   13   14 1
    31   13   38 1
    32   14   19 ar
    33   14   15 ar
    34   15   16 ar
    35   15   39 1
    36   16   17 ar
    37   16   40 1
    38   17   18 ar
    39   17   22 2
    40   18   19 ar
    41   18   20 2
    42   19   41 1
    43   20   42 1
    44   20   21 1
    45   21   23 1
    46   21   22 1
@<TRIPOS>MOLECULE
CHEMBL570126
   50    53     0     0     0
SMALL
USER_CHARGES

@<TRIPOS>ATOM
      1 C1         -3.0433    0.6779    4.2666 C.3       1 <0>        -0.0778
      2 C2         -2.9185   -0.2399    3.0778 C.2       1 <0>        -0.1337
      3 C3         -3.8017   -1.1754    2.6925 C.2       1 <0>         0.0505
      4 N1         -3.3444   -1.8103    1.5667 N.pl3     1 <0>        -0.5717
      5 H1         -3.8099   -2.5236    1.1025 H         1 <0>         0.4239
      6 C4         -2.1355   -1.2901    1.1940 C.ar      1 <0>         0.3226
      7 C5         -1.8161   -0.2788    2.1189 C.ar      1 <0>        -0.2035
      8 C6         -0.6136    0.4258    1.9571 C.ar      1 <0>         0.4788
      9 N2          0.1711    0.1077    0.9316 N.ar      1 <0>        -0.5505
     10 C7         -0.1690   -0.8468    0.0844 C.ar      1 <0>         0.3281
     11 N3         -1.2818   -1.5386    0.2021 N.ar      1 <0>        -0.5357
     12 N4         -0.2536    1.4265    2.8417 N.pl3     1 <0>        -0.6566
     13 C8         -0.7497    2.7981    2.6616 C.3       1 <0>         0.1413
     14 C9          0.4514    3.7499    2.6024 C.3       1 <0>         0.1045
     15 N5          1.3364    3.4604    3.7394 N.pl3     1 <0>        -0.6015
     16 C10         1.8326    2.0888    3.9195 C.3       1 <0>         0.1523
     17 H2          2.4728    1.8181    3.0799 H         1 <0>         0.0808
     18 C11         0.6269    1.1358    3.9819 C.3       1 <0>         0.1426
     19 C12         2.6290    1.9978    5.2227 C.3       1 <0>        -0.1575
     20 C13         1.6935    4.4531    4.6170 C.2       1 <0>         0.6581
     21 N6          1.9354    5.7272    4.1539 N.pl3     1 <0>        -0.6281
     22 C14         1.9423    5.9739    2.8216 C.1       1 <0>         0.4015
     23 N7          1.9481    6.1807    1.7046 N.1       1 <0>        -0.3942
     24 N8          1.8045    4.1883    5.8972 N.2       1 <0>        -0.5581
     25 C15         2.2850    5.1423    6.7548 C.ar      1 <0>         0.1290
     26 C16         3.5237    5.7407    6.5153 C.ar      1 <0>        -0.1651
     27 C17         4.0021    6.7007    7.3826 C.ar      1 <0>        -0.0879
     28 C18         3.2575    7.0715    8.4883 C.ar      1 <0>        -0.1144
     29 C19         2.0287    6.4827    8.7321 C.ar      1 <0>        -0.0674
     30 C20         1.5358    5.5247    7.8687 C.ar      1 <0>        -0.0981
     31 Br1         1.0199    6.9967   10.2467 Br        1 <0>        -0.0471
     32 H3         -3.4751    1.6270    3.9491 H         1 <0>         0.0644
     33 H4         -3.6883    0.2175    5.0150 H         1 <0>         0.0644
     34 H5         -2.0566    0.8531    4.6955 H         1 <0>         0.0701
     35 H6         -4.7326   -1.3947    3.1942 H         1 <0>         0.1822
     36 H7          0.4972   -1.0735   -0.7348 H         1 <0>         0.1999
     37 H8         -1.3146    2.8637    1.7316 H         1 <0>         0.0820
     38 H9         -1.3899    3.0687    3.5012 H         1 <0>         0.0692
     39 H10         0.9933    3.5975    1.6690 H         1 <0>         0.0791
     40 H11         0.1042    4.7813    2.6625 H         1 <0>         0.0828
     41 H12         0.0824    1.2908    4.9133 H         1 <0>         0.0730
     42 H13         0.9714    0.1033    3.9241 H         1 <0>         0.0803
     43 H14         1.9761    2.2285    6.0644 H         1 <0>         0.1040
     44 H15         3.0257    0.9889    5.3364 H         1 <0>         0.0611
     45 H16         3.4527    2.7111    5.1957 H         1 <0>         0.0559
     46 H17         4.1063    5.4521    5.6529 H         1 <0>         0.1262
     47 H18         4.9602    7.1637    7.1983 H         1 <0>         0.1323
     48 H19         3.6370    7.8235    9.1644 H         1 <0>         0.1323
     49 H20         0.5750    5.0690    8.0572 H         1 <0>         0.1367
     50 H21         2.1008    6.4480    4.7815 H         1 <0>         0.4389
@<TRIPOS>BOND
     1    1    2 1
     2    1   32 1
     3    1   33 1
     4    1   34 1
     5    2    7 1
     6    2    3 2
     7    3    4 1
     8    3   35 1
     9    4    5 1
    10    4    6 1
    11    6   11 ar
    12    6    7 ar
    13    7    8 ar
    14    8    9 ar
    15    8   12 1
    16    9   10 ar
    17   10   11 ar
    18   10   36 1
    19   12   18 1
    20   12   13 1
    21   13   14 1
    22   13   37 1
    23   13   38 1
    24   14   15 1
    25   14   39 1
    26   14   40 1
    27   15   16 1
    28   15   20 1
    29   16   17 1
    30   16   18 1
    31   16   19 1
    32   18   41 1
    33   18   42 1
    34   19   43 1
    35   19   44 1
    36   19   45 1
    37   20   21 1
    38   20   24 2
    39   21   22 1
    40   21   50 1
    41   22   23 3
    42   24   25 1
    43   25   30 ar
    44   25   26 ar
    45   26   27 ar
    46   26   46 1
    47   27   28 ar
    48   27   47 1
    49   28   29 ar
    50   28   48 1
    51   29   30 ar
    52   29   31 1
    53   30   49 1
@<TRIPOS>MOLECULE
CHEMBL570126__1
   50    53     0     0     0
SMALL
USER_CHARGES

@<TRIPOS>ATOM
      1 C1         -2.8574   -0.2193    4.1907 C.3       1 <0>        -0.0780
      2 C2         -2.3857   -1.3829    3.3572 C.2       1 <0>        -0.1325
      3 C3         -3.0561   -2.5224    3.1209 C.2       1 <0>         0.0494
      4 N1         -2.3070   -3.3444    2.3192 N.pl3     1 <0>        -0.5719
      5 H1         -2.5813   -4.2228    2.0125 H         1 <0>         0.4237
      6 C4         -1.1163   -2.7439    2.0150 C.ar      1 <0>         0.3222
      7 C5         -1.1132   -1.4858    2.6455 C.ar      1 <0>        -0.2033
      8 C6          0.0066   -0.6557    2.4855 C.ar      1 <0>         0.4794
      9 N2          1.0165   -1.0950    1.7401 N.ar      1 <0>        -0.5500
     10 C7          0.9707   -2.2822    1.1630 C.ar      1 <0>         0.3273
     11 N3         -0.0544   -3.0965    1.2923 N.ar      1 <0>        -0.5361
     12 N4          0.0587    0.5885    3.0877 N.pl3     1 <0>        -0.6557
     13 C8         -0.5405    1.7611    2.4349 C.3       1 <0>         0.1364
     14 C9          0.5313    2.8503    2.3044 C.3       1 <0>         0.1175
     15 N5          1.1863    3.0233    3.6086 N.pl3     1 <0>        -0.6435
     16 C10         1.7855    1.8508    4.2613 C.3       1 <0>         0.1452
     17 H2          2.6132    1.4791    3.6574 H         1 <0>         0.0924
     18 C11         0.7088    0.7605    4.3944 C.3       1 <0>         0.1424
     19 C12         2.2974    2.2415    5.6492 C.3       1 <0>        -0.1724
     20 C13         1.2377    4.2524    4.2034 C.2       1 <0>         0.7064
     21 N6          0.2395    4.6587    4.9680 N.2       1 <0>        -0.4990
     22 C14         0.2287    5.9241    5.4525 C.1       1 <0>         0.3592
     23 N7          0.2196    6.9849    5.8587 N.1       1 <0>        -0.4388
     24 N8          2.3223    5.0622    4.0073 N.pl3     1 <0>        -0.6688
     25 C15         3.4569    4.5663    3.3567 C.ar      1 <0>         0.1563
     26 C16         3.3842    3.3795    2.6385 C.ar      1 <0>        -0.1785
     27 C17         4.5058    2.8920    1.9971 C.ar      1 <0>        -0.0849
     28 C18         5.7011    3.5837    2.0694 C.ar      1 <0>        -0.1102
     29 C19         5.7774    4.7659    2.7841 C.ar      1 <0>        -0.0632
     30 C20         4.6565    5.2622    3.4227 C.ar      1 <0>        -0.1282
     31 Br1         7.4145    5.7074    2.8810 Br        1 <0>        -0.0430
     32 H3         -3.3089    0.5321    3.5430 H         1 <0>         0.0658
     33 H4         -3.5953   -0.5661    4.9142 H         1 <0>         0.0634
     34 H5         -2.0092    0.2176    4.7177 H         1 <0>         0.0708
     35 H6         -4.0381   -2.7561    3.5049 H         1 <0>         0.1816
     36 H7          1.8125   -2.6005    0.5659 H         1 <0>         0.1995
     37 H8         -0.9024    1.4835    1.4449 H         1 <0>         0.0820
     38 H9         -1.3682    2.1328    3.0388 H         1 <0>         0.0745
     39 H10         1.2698    2.5498    1.5611 H         1 <0>         0.0833
     40 H11         0.0650    3.7880    2.0020 H         1 <0>         0.0902
     41 H12        -0.0321    1.0626    5.1347 H         1 <0>         0.0729
     42 H13         1.1720   -0.1780    4.6989 H         1 <0>         0.0806
     43 H14         1.4810    2.6708    6.2300 H         1 <0>         0.0732
     44 H15         2.6790    1.3563    6.1581 H         1 <0>         0.0817
     45 H16         3.0967    2.9755    5.5483 H         1 <0>         0.0619
     46 H17         2.3048    5.9805    4.3195 H         1 <0>         0.4175
     47 H18         2.4514    2.8382    2.5821 H         1 <0>         0.1962
     48 H19         4.4496    1.9693    1.4387 H         1 <0>         0.1383
     49 H20         6.5769    3.2002    1.5672 H         1 <0>         0.1337
     50 H21         4.7150    6.1877    3.9763 H         1 <0>         0.1330
@<TRIPOS>BOND
     1    1    2 1
     2    1   32 1
     3    1   33 1
     4    1   34 1
     5    2    7 1
     6    2    3 2
     7    3    4 1
     8    3   35 1
     9    4    5 1
    10    4    6 1
    11    6   11 ar
    12    6    7 ar
    13    7    8 ar
    14    8    9 ar
    15    8   12 1
    16    9   10 ar
    17   10   11 ar
    18   10   36 1
    19   12   18 1
    20   12   13 1
    21   13   14 1
    22   13   37 1
    23   13   38 1
    24   14   15 1
    25   14   39 1
    26   14   40 1
    27   15   16 1
    28   15   20 1
    29   16   17 1
    30   16   18 1
    31   16   19 1
    32   18   41 1
    33   18   42 1
    34   19   43 1
    35   19   44 1
    36   19   45 1
    37   20   21 2
    38   20   24 1
    39   21   22 1
    40   22   23 3
    41   24   25 1
    42   24   46 1
    43   25   30 ar
    44   25   26 ar
    45   26   27 ar
    46   26   47 1
    47   27   28 ar
    48   27   48 1
    49   28   29 ar
    50   28   49 1
    51   29   30 ar
    52   29   31 1
    53   30   50 1
@<TRIPOS>MOLECULE
CHEMBL570126__2
   49    52     0     0     0
SMALL
USER_CHARGES

@<TRIPOS>ATOM
      1 C1         -2.4038   -0.7461    3.3685 C.3       1 <0>        -0.0801
      2 C2         -1.6468   -1.7689    2.5611 C.2       1 <0>        -0.1241
      3 C3         -2.0886   -2.9811    2.1881 C.2       1 <0>         0.0385
      4 N1         -1.1194   -3.6264    1.4643 N.pl3     1 <0>        -0.5743
      5 H1         -1.2065   -4.5157    1.0869 H         1 <0>         0.4202
      6 C4         -0.0118   -2.8318    1.3519 C.ar      1 <0>         0.3205
      7 C5         -0.2930   -1.6299    2.0278 C.ar      1 <0>        -0.2077
      8 C6          0.6896   -0.6288    2.0578 C.ar      1 <0>         0.4920
      9 N2          1.8450   -0.8600    1.4413 N.ar      1 <0>        -0.5498
     10 C7          2.0662   -2.0018    0.8152 C.ar      1 <0>         0.3272
     11 N3          1.1776   -2.9708    0.7686 N.ar      1 <0>        -0.5447
     12 N4          0.4621    0.5686    2.7119 N.pl3     1 <0>        -0.6581
     13 C8         -0.2325    1.6715    2.0329 C.3       1 <0>         0.1394
     14 C9          0.6556    2.9205    2.0925 C.3       1 <0>         0.1195
     15 N5          1.1037    3.1124    3.4789 N.pl3     1 <0>        -0.6272
     16 C10         1.7983    2.0095    4.1579 C.3       1 <0>         0.1596
     17 H2          2.7450    1.8095    3.6562 H         1 <0>         0.0664
     18 C11         0.9052    0.7585    4.1002 C.3       1 <0>         0.1446
     19 C12         2.0603    2.3885    5.6169 C.3       1 <0>        -0.1591
     20 C13         0.8789    4.2953    4.1250 C.2       1 <0>         0.6685
     21 N6         -0.2700    4.9281    3.9642 N.2       1 <0>        -0.6055
     22 C14        -0.4536    6.1505    4.5192 C.1       1 <0>         0.4234
     23 N7         -0.6076    7.1754    4.9844 N.1       1 <0>        -0.5414
     24 N8          1.8430    4.8244    4.9381 N.2       1 <0>        -0.7320
     25 C15         3.1615    4.9290    4.4831 C.ar      1 <0>         0.2429
     26 C16         3.4573    4.6924    3.1466 C.ar      1 <0>        -0.2187
     27 C17         4.7599    4.7963    2.6999 C.ar      1 <0>        -0.0737
     28 C18         5.7700    5.1351    3.5815 C.ar      1 <0>        -0.1977
     29 C19         5.4793    5.3710    4.9135 C.ar      1 <0>        -0.0391
     30 C20         4.1764    5.2750    5.3651 C.ar      1 <0>        -0.1640
     31 Br1         6.8642    5.8328    6.1153 Br        1 <0>        -0.0921
     32 H3         -2.8928   -0.0416    2.6958 H         1 <0>         0.0672
     33 H4         -3.1554   -1.2481    3.9778 H         1 <0>         0.0613
     34 H5         -1.7107   -0.2090    4.0160 H         1 <0>         0.0733
     35 H6         -3.0615   -3.3869    2.4232 H         1 <0>         0.1791
     36 H7          3.0184   -2.1487    0.3273 H         1 <0>         0.1972
     37 H8         -0.4165    1.4027    0.9927 H         1 <0>         0.0662
     38 H9         -1.1793    1.8715    2.5346 H         1 <0>         0.0673
     39 H10         1.5210    2.7853    1.4437 H         1 <0>         0.0552
     40 H11         0.0849    3.7909    1.7687 H         1 <0>         0.0895
     41 H12         0.0376    0.8951    4.7457 H         1 <0>         0.0622
     42 H13         1.4728   -0.1133    4.4256 H         1 <0>         0.0684
     43 H14         1.1350    2.7406    6.0726 H         1 <0>         0.0605
     44 H15         2.4233    1.5156    6.1594 H         1 <0>         0.0437
     45 H16         2.8094    3.1792    5.6579 H         1 <0>         0.0958
     46 H17         2.6692    4.4270    2.4574 H         1 <0>         0.1108
     47 H18         4.9900    4.6124    1.6609 H         1 <0>         0.1056
     48 H19         6.7879    5.2154    3.2297 H         1 <0>         0.1077
     49 H20         3.9489    5.4642    6.4038 H         1 <0>         0.1157
@<TRIPOS>BOND
     1    1    2 1
     2    1   32 1
     3    1   33 1
     4    1   34 1
     5    2    7 1
     6    2    3 2
     7    3    4 1
     8    3   35 1
     9    4    5 1
    10    4    6 1
    11    6   11 ar
    12    6    7 ar
    13    7    8 ar
    14    8    9 ar
    15    8   12 1
    16    9   10 ar
    17   10   11 ar
    18   10   36 1
    19   12   18 1
    20   12   13 1
    21   13   14 1
    22   13   37 1
    23   13   38 1
    24   14   15 1
    25   14   39 1
    26   14   40 1
    27   15   16 1
    28   15   20 1
    29   16   17 1
    30   16   18 1
    31   16   19 1
    32   18   41 1
    33   18   42 1
    34   19   43 1
    35   19   44 1
    36   19   45 1
    37   20   21 2
    38   20   24 1
    39   21   22 1
    40   22   23 3
    41   24   25 1
    42   25   30 ar
    43   25   26 ar
    44   26   27 ar
    45   26   46 1
    46   27   28 ar
    47   27   47 1
    48   28   29 ar
    49   28   48 1
    50   29   30 ar
    51   29   31 1
    52   30   49 1
@<TRIPOS>MOLECULE
CHEMBL570126__3
   50    53     0     0     0
SMALL
USER_CHARGES

@<TRIPOS>ATOM
      1 C1         -3.6570    1.8706    1.1848 C.3       1 <0>        -0.0765
      2 C2         -3.2550    0.6168    0.4518 C.2       1 <0>        -0.1354
      3 C3         -4.0718   -0.2249   -0.2026 C.2       1 <0>         0.0511
      4 N1         -3.3433   -1.2526   -0.7436 N.pl3     1 <0>        -0.5719
      5 H1         -3.7135   -1.9841   -1.2620 H         1 <0>         0.4240
      6 C4         -2.0177   -1.0946   -0.4456 C.ar      1 <0>         0.3223
      7 C5         -1.9003    0.0860    0.3111 C.ar      1 <0>        -0.2037
      8 C6         -0.6266    0.4838    0.7445 C.ar      1 <0>         0.4790
      9 N2          0.4165   -0.2734    0.4168 N.ar      1 <0>        -0.5484
     10 C7          0.2617   -1.3729   -0.2985 C.ar      1 <0>         0.3282
     11 N3         -0.9138   -1.7882   -0.7187 N.ar      1 <0>        -0.5359
     12 N4         -0.4598    1.6347    1.4934 N.pl3     1 <0>        -0.6537
     13 C8         -0.3285    2.9425    0.8358 C.3       1 <0>         0.1358
     14 C9          0.9717    3.6020    1.3119 C.3       1 <0>         0.1270
     15 N5          1.0203    3.5391    2.7794 N.pl3     1 <0>        -0.6788
     16 C10         0.8890    2.2313    3.4370 C.3       1 <0>         0.1472
     17 H2          1.7376    1.6012    3.1708 H         1 <0>         0.0858
     18 C11        -0.4169    1.5724    2.9611 C.3       1 <0>         0.1401
     19 C12         0.8467    2.4216    4.9545 C.3       1 <0>        -0.1720
     20 C13         1.1857    4.6809    3.5224 C.2       1 <0>         0.6547
     21 N6          0.0901    5.3129    4.0668 N.pl3     1 <0>        -0.5870
     22 C14         0.2412    6.4939    4.7136 C.1       1 <0>         0.4213
     23 N7          0.3680    7.4840    5.2559 N.1       1 <0>        -0.3937
     24 N8          2.3878    5.1705    3.7140 N.2       1 <0>        -0.5449
     25 C15         3.4661    4.6037    3.0875 C.ar      1 <0>         0.1388
     26 C16         3.7765    3.2596    3.3046 C.ar      1 <0>        -0.1241
     27 C17         4.8636    2.6946    2.6709 C.ar      1 <0>        -0.0971
     28 C18         5.6463    3.4563    1.8213 C.ar      1 <0>        -0.1044
     29 C19         5.3446    4.7893    1.6013 C.ar      1 <0>        -0.0746
     30 C20         4.2559    5.3655    2.2249 C.ar      1 <0>        -0.0932
     31 Br1         6.4214    5.8211    0.4387 Br        1 <0>        -0.0491
     32 H3         -3.5385    2.7306    0.5256 H         1 <0>         0.0649
     33 H4         -4.6988    1.7917    1.4954 H         1 <0>         0.0638
     34 H5         -3.0244    1.9965    2.0635 H         1 <0>         0.0683
     35 H6         -5.1421   -0.1094   -0.2895 H         1 <0>         0.1817
     36 H7          1.1353   -1.9590   -0.5426 H         1 <0>         0.1995
     37 H8         -0.2953    2.8067   -0.2452 H         1 <0>         0.0786
     38 H9         -1.1771    3.5726    1.1020 H         1 <0>         0.0647
     39 H10         1.8263    3.0695    0.8944 H         1 <0>         0.0732
     40 H11         0.9932    4.6431    0.9895 H         1 <0>         0.0807
     41 H12        -1.2716    2.1073    3.3751 H         1 <0>         0.0642
     42 H13        -0.4421    0.5317    3.2840 H         1 <0>         0.0787
     43 H14         0.0278    3.0926    5.2139 H         1 <0>         0.0646
     44 H15         0.6927    1.4566    5.4375 H         1 <0>         0.0807
     45 H16         1.7895    2.8510    5.2932 H         1 <0>         0.0668
     46 H17         3.1669    2.6638    3.9677 H         1 <0>         0.1282
     47 H18         5.1047    1.6553    2.8385 H         1 <0>         0.1308
     48 H19         6.4965    3.0090    1.3280 H         1 <0>         0.1311
     49 H20         4.0185    6.4043    2.0492 H         1 <0>         0.1323
     50 H21        -0.7898    4.9126    3.9872 H         1 <0>         0.4363
@<TRIPOS>BOND
     1    1    2 1
     2    1   32 1
     3    1   33 1
     4    1   34 1
     5    2    7 1
     6    2    3 2
     7    3    4 1
     8    3   35 1
     9    4    5 1
    10    4    6 1
    11    6   11 ar
    12    6    7 ar
    13    7    8 ar
    14    8    9 ar
    15    8   12 1
    16    9   10 ar
    17   10   11 ar
    18   10   36 1
    19   12   18 1
    20   12   13 1
    21   13   14 1
    22   13   37 1
    23   13   38 1
    24   14   15 1
    25   14   39 1
    26   14   40 1
    27   15   16 1
    28   15   20 1
    29   16   17 1
    30   16   18 1
    31   16   19 1
    32   18   41 1
    33   18   42 1
    34   19   43 1
    35   19   44 1
    36   19   45 1
    37   20   21 1
    38   20   24 2
    39   21   22 1
    40   21   50 1
    41   22   23 3
    42   24   25 1
    43   25   30 ar
    44   25   26 ar
    45   26   27 ar
    46   26   46 1
    47   27   28 ar
    48   27   47 1
    49   28   29 ar
    50   28   48 1
    51   29   30 ar
    52   29   31 1
    53   30   49 1
@<TRIPOS>MOLECULE
CHEMBL566298
   57    61     0     0     0
SMALL
USER_CHARGES

@<TRIPOS>ATOM
      1 C1          0.7515    2.0871    0.2816 C.ar      1 <0>        -0.1157
      2 C2          1.9815    2.6949    0.1110 C.ar      1 <0>        -0.1127
      3 C3          3.1248    1.9248    0.0261 C.ar      1 <0>        -0.1038
      4 C4          3.0436    0.5448    0.1112 C.ar      1 <0>        -0.0949
      5 C5          1.8139   -0.0628    0.2817 C.ar      1 <0>        -0.1012
      6 C6          0.6685    0.7112    0.3667 C.ar      1 <0>        -0.1017
      7 C7          1.9897   -1.5649    0.3448 C.3       1 <0>        -0.0860
      8 C8          3.3927   -1.8323   -0.2403 C.3       1 <0>         0.1589
      9 C9          4.1300   -0.5073    0.0483 C.3       1 <0>        -0.0904
     10 N1          4.0407   -2.9499    0.4505 N.pl3     1 <0>        -0.6682
     11 C10         5.0167   -3.6851   -0.1910 C.ar      1 <0>         0.6592
     12 N2          5.3729   -3.3756   -1.4340 N.ar      1 <0>        -0.6487
     13 C11         6.3131   -4.0834   -2.0517 C.ar      1 <0>         0.6574
     14 N3          6.8976   -5.1007   -1.4267 N.ar      1 <0>        -0.6746
     15 C12         6.5416   -5.4102   -0.1840 C.ar      1 <0>         0.6452
     16 N4          5.6046   -4.6992    0.4358 N.ar      1 <0>        -0.6674
     17 N5          7.1484   -6.4665    0.4649 N.pl3     1 <0>        -0.5879
     18 C13         6.7286   -6.7913    1.8431 C.3       1 <0>         0.1150
     19 C14         6.6167   -8.3136    2.0435 C.3       1 <0>        -0.1589
     20 C15         6.0077   -8.9404    0.8088 C.3       1 <0>        -0.0067
     21 N6          7.0761   -9.3787   -0.0865 N.4       1 <0>        -0.4877
     22 C16         7.5314   -8.3977   -0.9953 C.3       1 <0>        -0.0462
     23 C17         8.1699   -7.2203   -0.2324 C.3       1 <0>         0.1137
     24 N7          6.6829   -3.7618   -3.3440 N.pl3     1 <0>        -0.6210
     25 C18         5.9922   -2.7716   -4.0407 C.ar      1 <0>         0.2001
     26 C19         6.6456   -1.9624   -4.9695 C.ar      1 <0>        -0.1997
     27 C20         5.9262   -0.9939   -5.6379 C.ar      1 <0>         0.1240
     28 N8          4.6373   -0.8285   -5.4071 N.ar      1 <0>        -0.4909
     29 C21         3.9834   -1.5739   -4.5361 C.ar      1 <0>         0.1196
     30 C22         4.6288   -2.5682   -3.8311 C.ar      1 <0>        -0.1683
     31 H1         -0.1431    2.6880    0.3527 H         1 <0>         0.1274
     32 H2          2.0482    3.7707    0.0438 H         1 <0>         0.1270
     33 H3          4.0852    2.4003   -0.1075 H         1 <0>         0.1203
     34 H4         -0.2927    0.2372    0.5003 H         1 <0>         0.1221
     35 H5          1.9390   -1.9086    1.3779 H         1 <0>         0.0864
     36 H6          1.2281   -2.0604   -0.2573 H         1 <0>         0.0860
     37 H7          3.3362   -2.0186   -1.3128 H         1 <0>         0.1121
     38 H8          4.8297   -0.2809   -0.7562 H         1 <0>         0.0805
     39 H9          4.6549   -0.5665    1.0017 H         1 <0>         0.0818
     40 H10         3.7837   -3.1732    1.3588 H         1 <0>         0.4192
     41 H11         7.4613   -6.3912    2.5439 H         1 <0>         0.0846
     42 H12         5.7596   -6.3325    2.0394 H         1 <0>         0.1154
     43 H13         7.6091   -8.7320    2.2117 H         1 <0>         0.0907
     44 H14         5.9837   -8.5210    2.9063 H         1 <0>         0.1268
     45 H15         5.4004   -9.7981    1.0979 H         1 <0>         0.1387
     46 H16         5.3833   -8.2070    0.2986 H         1 <0>         0.1288
     47 H17         7.8584   -9.6800    0.4750 H         1 <0>         0.4226
     48 H18         8.2704   -8.8398   -1.6634 H         1 <0>         0.1480
     49 H19         6.6896   -8.0319   -1.5832 H         1 <0>         0.1301
     50 H20         8.6803   -6.5688   -0.9417 H         1 <0>         0.1321
     51 H21         8.8914   -7.6053    0.4882 H         1 <0>         0.1004
     52 H22         7.4231   -4.2253   -3.7662 H         1 <0>         0.4284
     53 H23         7.7003   -2.0921   -5.1626 H         1 <0>         0.1382
     54 H24         6.4241   -0.3626   -6.3590 H         1 <0>         0.1621
     55 H25         2.9285   -1.4058   -4.3764 H         1 <0>         0.1579
     56 H26         4.0867   -3.1779   -3.1234 H         1 <0>         0.1432
     57 H27         6.7438  -10.1718   -0.6143 H         1 <0>         0.4289
@<TRIPOS>BOND
     1    1    6 ar
     2    1    2 ar
     3    1   31 1
     4    2    3 ar
     5    2   32 1
     6    3    4 ar
     7    3   33 1
     8    4    9 1
     9    4    5 ar
    10    5    6 ar
    11    5    7 1
    12    6   34 1
    13    7    8 1
    14    7   35 1
    15    7   36 1
    16    8    9 1
    17    8   10 1
    18    8   37 1
    19    9   38 1
    20    9   39 1
    21   10   11 1
    22   10   40 1
    23   11   16 ar
    24   11   12 ar
    25   12   13 ar
    26   13   14 ar
    27   13   24 1
    28   14   15 ar
    29   15   16 ar
    30   15   17 1
    31   17   23 1
    32   17   18 1
    33   18   19 1
    34   18   41 1
    35   18   42 1
    36   19   20 1
    37   19   43 1
    38   19   44 1
    39   20   21 1
    40   20   45 1
    41   20   46 1
    42   21   22 1
    43   21   47 1
    44   21   57 1
    45   22   23 1
    46   22   48 1
    47   22   49 1
    48   23   50 1
    49   23   51 1
    50   24   25 1
    51   24   52 1
    52   25   30 ar
    53   25   26 ar
    54   26   27 ar
    55   26   53 1
    56   27   28 ar
    57   27   54 1
    58   28   29 ar
    59   29   30 ar
    60   29   55 1
    61   30   56 1
@<TRIPOS>MOLECULE
CHEMBL466496
   38    40     0     0     0
SMALL
NO_CHARGES

@<TRIPOS>ATOM
      1 C1         -0.0187    1.5258    0.0104 C.3       1 <0>        -0.1320
      2 C2          0.0021   -0.0041    0.0020 C.3       1 <0>         0.0941
      3 H1         -1.0205   -0.3814    0.0098 H         1 <0>         0.0715
      4 C3          0.7309   -0.5033    1.2229 C.ar      1 <0>        -0.0850
      5 C4          2.1131   -0.5138    1.2466 C.ar      1 <0>        -0.0931
      6 C5          2.7816   -0.9717    2.3665 C.ar      1 <0>        -0.1226
      7 C6          2.0681   -1.4187    3.4629 C.ar      1 <0>        -0.1172
      8 C7          0.6860   -1.4074    3.4395 C.ar      1 <0>        -0.1198
      9 C8          0.0174   -0.9454    2.3212 C.ar      1 <0>        -0.1120
     10 N1          0.6878   -0.4765   -1.2033 N.2       1 <0>        -0.4025
     11 C9          0.0626   -1.2224   -2.0510 C.2       1 <0>         0.0724
     12 C10         0.3932   -1.9004   -3.3631 C.3       1 <0>         0.1503
     13 C11        -0.6977   -2.8853   -3.0023 C.2       1 <0>         0.2731
     14 O1         -0.9615   -4.0342   -3.2659 O.2       1 <0>        -0.3853
     15 C12        -1.3006   -1.8033   -2.1696 C.2       1 <0>         0.2609
     16 O2         -2.4102   -1.5242   -1.7675 O.2       1 <0>        -0.3958
     17 N2          0.0889   -1.0865   -4.5426 N.pl3     1 <0>        -0.6679
     18 C13         0.7742   -1.3044   -5.7340 C.ar      1 <0>         0.0910
     19 C14         1.7501   -2.2965   -5.8270 C.ar      1 <0>        -0.1533
     20 C15         2.4060   -2.4808   -7.0259 C.ar      1 <0>         0.0458
     21 N3          2.1204   -1.7331   -8.0755 N.ar      1 <0>        -0.5484
     22 C16         1.2041   -0.7842   -8.0275 C.ar      1 <0>         0.0487
     23 C17         0.4991   -0.5402   -6.8679 C.ar      1 <0>        -0.1520
     24 H2          1.0039    1.9031    0.0027 H         1 <0>         0.0700
     25 H3         -0.5459    1.8868   -0.8726 H         1 <0>         0.0608
     26 H4         -0.5289    1.8773    0.9072 H         1 <0>         0.0723
     27 H5          2.6705   -0.1645    0.3901 H         1 <0>         0.1300
     28 H6          3.8614   -0.9806    2.3848 H         1 <0>         0.1237
     29 H7          2.5905   -1.7771    4.3376 H         1 <0>         0.1227
     30 H8          0.1286   -1.7569    4.2959 H         1 <0>         0.1239
     31 H9         -1.0624   -0.9331    2.3044 H         1 <0>         0.1214
     32 H10         1.3904   -2.3394   -3.3926 H         1 <0>         0.1358
     33 H11        -0.5903   -0.3957   -4.4931 H         1 <0>         0.4040
     34 H12         1.9890   -2.9115   -4.9719 H         1 <0>         0.1394
     35 H13         3.1634   -3.2465   -7.1070 H         1 <0>         0.1608
     36 H14         1.0008   -0.1944   -8.9092 H         1 <0>         0.1605
     37 H15        -0.2528    0.2345   -6.8369 H         1 <0>         0.1375
     38 H16         2.5978   -1.8852   -8.9060 H         1 <0>         0.4168
@<TRIPOS>BOND
     1    1    2 1
     2    1   24 1
     3    1   25 1
     4    1   26 1
     5    2    3 1
     6    2    4 1
     7    2   10 1
     8    4    9 ar
     9    4    5 ar
    10    5    6 ar
    11    5   27 1
    12    6    7 ar
    13    6   28 1
    14    7    8 ar
    15    7   29 1
    16    8    9 ar
    17    8   30 1
    18    9   31 1
    19   10   11 2
    20   11   15 1
    21   11   12 1
    22   12   13 1
    23   12   17 1
    24   12   32 1
    25   13   14 2
    26   13   15 1
    27   15   16 2
    28   17   18 1
    29   17   33 1
    30   18   23 ar
    31   18   19 ar
    32   19   20 ar
    33   19   34 1
    34   20   21 ar
    35   20   35 1
    36   21   22 ar
    37   21   38 1
    38   22   23 ar
    39   22   36 1
    40   23   37 1
@<TRIPOS>MOLECULE
CHEMBL466496__1
   38    40     0     0     0
SMALL
NO_CHARGES

@<TRIPOS>ATOM
      1 C1         -0.0187    1.5258    0.0104 C.3       1 <0>        -0.1382
      2 C2          0.0021   -0.0041    0.0020 C.3       1 <0>         0.0976
      3 H1         -1.0205   -0.3814    0.0098 H         1 <0>         0.0700
      4 C3          0.7309   -0.5033    1.2229 C.ar      1 <0>        -0.0825
      5 C4          2.1131   -0.5138    1.2466 C.ar      1 <0>        -0.0936
      6 C5          2.7816   -0.9717    2.3665 C.ar      1 <0>        -0.1215
      7 C6          2.0681   -1.4187    3.4629 C.ar      1 <0>        -0.1166
      8 C7          0.6860   -1.4074    3.4395 C.ar      1 <0>        -0.1208
      9 C8          0.0174   -0.9454    2.3212 C.ar      1 <0>        -0.1088
     10 N1          0.6878   -0.4765   -1.2033 N.2       1 <0>        -0.3963
     11 C9          0.0626   -1.2224   -2.0510 C.2       1 <0>         0.0732
     12 C10        -1.3273   -1.8083   -2.1751 C.3       1 <0>         0.0951
     13 C11        -1.0703   -1.8183   -3.6664 C.2       1 <0>         0.2883
     14 O1         -1.7413   -1.7847   -4.6702 O.2       1 <0>        -0.3768
     15 C12         0.3853   -1.8829   -3.3430 C.2       1 <0>         0.3237
     16 O2          1.3863   -2.2916   -3.8924 O.2       1 <0>        -0.3770
     17 N2         -1.4606   -3.1443   -1.5889 N.pl3     1 <0>        -0.6695
     18 C13        -2.7044   -3.5927   -1.1546 C.ar      1 <0>         0.0710
     19 C14        -3.8370   -2.7875   -1.2741 C.ar      1 <0>        -0.1511
     20 C15        -5.0511   -3.2692   -0.8320 C.ar      1 <0>         0.0375
     21 N3         -5.1487   -4.4741   -0.3021 N.ar      1 <0>        -0.5524
     22 C16        -4.1007   -5.2658   -0.1713 C.ar      1 <0>         0.0396
     23 C17        -2.8520   -4.8612   -0.5939 C.ar      1 <0>        -0.1463
     24 H2          1.0039    1.9031    0.0027 H         1 <0>         0.0709
     25 H3         -0.5459    1.8868   -0.8726 H         1 <0>         0.0623
     26 H4         -0.5289    1.8773    0.9072 H         1 <0>         0.0725
     27 H5          2.6705   -0.1645    0.3901 H         1 <0>         0.1295
     28 H6          3.8614   -0.9806    2.3848 H         1 <0>         0.1236
     29 H7          2.5905   -1.7771    4.3376 H         1 <0>         0.1223
     30 H8          0.1286   -1.7569    4.2959 H         1 <0>         0.1228
     31 H9         -1.0624   -0.9331    2.3044 H         1 <0>         0.1203
     32 H10        -2.1212   -1.1266   -1.8698 H         1 <0>         0.1297
     33 H11        -0.6819   -3.7164   -1.5035 H         1 <0>         0.4042
     34 H12        -3.7641   -1.8005   -1.7064 H         1 <0>         0.1339
     35 H13        -5.9334   -2.6525   -0.9202 H         1 <0>         0.1571
     36 H14        -4.2235   -6.2447    0.2682 H         1 <0>         0.1574
     37 H15        -1.9995   -5.5159   -0.4884 H         1 <0>         0.1343
     38 H16        -6.0157   -4.7868    0.0003 H         1 <0>         0.4149
@<TRIPOS>BOND
     1    1    2 1
     2    1   24 1
     3    1   25 1
     4    1   26 1
     5    2    3 1
     6    2    4 1
     7    2   10 1
     8    4    9 ar
     9    4    5 ar
    10    5    6 ar
    11    5   27 1
    12    6    7 ar
    13    6   28 1
    14    7    8 ar
    15    7   29 1
    16    8    9 ar
    17    8   30 1
    18    9   31 1
    19   10   11 2
    20   11   15 1
    21   11   12 1
    22   12   13 1
    23   12   17 1
    24   12   32 1
    25   13   14 2
    26   13   15 1
    27   15   16 2
    28   17   18 1
    29   17   33 1
    30   18   23 ar
    31   18   19 ar
    32   19   20 ar
    33   19   34 1
    34   20   21 ar
    35   20   35 1
    36   21   22 ar
    37   21   38 1
    38   22   23 ar
    39   22   36 1
    40   23   37 1
@<TRIPOS>MOLECULE
CHEMBL466496__2
   37    39     0     0     0
SMALL
NO_CHARGES

@<TRIPOS>ATOM
      1 C1         -0.0187    1.5258    0.0104 C.3       1 <0>        -0.1392
      2 C2          0.0021   -0.0041    0.0020 C.3       1 <0>         0.0938
      3 H1          0.5293   -0.3651    0.8851 H         1 <0>         0.0744
      4 C3          0.7074   -0.4901   -1.2379 C.ar      1 <0>        -0.0887
      5 C4          0.0376   -0.5216   -2.4467 C.ar      1 <0>        -0.0943
      6 C5          0.6846   -0.9674   -3.5840 C.ar      1 <0>        -0.1203
      7 C6          2.0016   -1.3812   -3.5126 C.ar      1 <0>        -0.1126
      8 C7          2.6718   -1.3488   -2.3040 C.ar      1 <0>        -0.1186
      9 C8          2.0261   -0.8990   -1.1675 C.ar      1 <0>        -0.1070
     10 N1         -1.3723   -0.5112    0.0124 N.2       1 <0>        -0.3629
     11 C9         -1.7751   -1.2640    0.9803 C.2       1 <0>         0.0711
     12 C10        -1.1733   -1.8306    2.2481 C.3       1 <0>         0.0896
     13 C11        -2.5927   -1.8743    2.7711 C.2       1 <0>         0.3262
     14 O1         -3.1273   -1.8503    3.8540 O.2       1 <0>        -0.3386
     15 C12        -3.0385   -1.9551    1.3491 C.2       1 <0>         0.3559
     16 O2         -4.0041   -2.3903    0.7583 O.2       1 <0>        -0.3419
     17 N2         -0.5656   -3.1523    2.0751 N.pl3     1 <0>        -0.7020
     18 C13         0.4432   -3.5725    2.9368 C.ar      1 <0>         0.2448
     19 C14         0.8856   -2.7523    3.9746 C.ar      1 <0>        -0.2459
     20 C15         1.8871   -3.2061    4.8067 C.ar      1 <0>         0.1421
     21 N3          2.4250   -4.3985    4.6305 N.ar      1 <0>        -0.5184
     22 C16         2.0340   -5.2038    3.6605 C.ar      1 <0>         0.1412
     23 C17         1.0343   -4.8271    2.7886 C.ar      1 <0>        -0.2359
     24 H2          1.0039    1.9031    0.0027 H         1 <0>         0.0780
     25 H3         -0.5459    1.8868   -0.8726 H         1 <0>         0.0738
     26 H4         -0.5289    1.8773    0.9072 H         1 <0>         0.0646
     27 H5         -0.9914   -0.1983   -2.5024 H         1 <0>         0.1296
     28 H6          0.1611   -0.9927   -4.5283 H         1 <0>         0.1254
     29 H7          2.5069   -1.7302   -4.4010 H         1 <0>         0.1244
     30 H8          3.7006   -1.6725   -2.2481 H         1 <0>         0.1254
     31 H9          2.5507   -0.8702   -0.2240 H         1 <0>         0.1218
     32 H10        -0.5294   -1.1306    2.7806 H         1 <0>         0.1472
     33 H11         0.4500   -1.7754    4.1241 H         1 <0>         0.1329
     34 H12         2.2361   -2.5777    5.6127 H         1 <0>         0.1574
     35 H13         2.5002   -6.1718    3.5508 H         1 <0>         0.1581
     36 H14         0.7160   -5.4927    1.9999 H         1 <0>         0.1352
     37 H15        -0.8664   -3.7346    1.3600 H         1 <0>         0.4132
@<TRIPOS>BOND
     1    1    2 1
     2    1   24 1
     3    1   25 1
     4    1   26 1
     5    2    3 1
     6    2    4 1
     7    2   10 1
     8    4    9 ar
     9    4    5 ar
    10    5    6 ar
    11    5   27 1
    12    6    7 ar
    13    6   28 1
    14    7    8 ar
    15    7   29 1
    16    8    9 ar
    17    8   30 1
    18    9   31 1
    19   10   11 2
    20   11   15 1
    21   11   12 1
    22   12   13 1
    23   12   32 1
    24   12   17 1
    25   13   14 2
    26   13   15 1
    27   15   16 2
    28   17   18 1
    29   17   37 1
    30   18   23 ar
    31   18   19 ar
    32   19   20 ar
    33   19   33 1
    34   20   21 ar
    35   20   34 1
    36   21   22 ar
    37   22   23 ar
    38   22   35 1
    39   23   36 1
@<TRIPOS>MOLECULE
CHEMBL466496__3
   37    39     0     0     0
SMALL
NO_CHARGES

@<TRIPOS>ATOM
      1 C1         -0.0187    1.5258    0.0104 C.3       1 <0>        -0.1344
      2 C2          0.0021   -0.0041    0.0020 C.3       1 <0>         0.0895
      3 H1          0.5293   -0.3651    0.8851 H         1 <0>         0.0758
      4 C3          0.7074   -0.4901   -1.2379 C.ar      1 <0>        -0.0919
      5 C4          0.0376   -0.5216   -2.4467 C.ar      1 <0>        -0.0933
      6 C5          0.6846   -0.9674   -3.5840 C.ar      1 <0>        -0.1203
      7 C6          2.0016   -1.3812   -3.5126 C.ar      1 <0>        -0.1126
      8 C7          2.6718   -1.3488   -2.3040 C.ar      1 <0>        -0.1184
      9 C8          2.0261   -0.8990   -1.1675 C.ar      1 <0>        -0.1097
     10 N1         -1.3723   -0.5112    0.0124 N.2       1 <0>        -0.3603
     11 C9         -1.7751   -1.2640    0.9803 C.2       1 <0>         0.0730
     12 C10        -3.0593   -1.9731    1.3523 C.3       1 <0>         0.1480
     13 C11        -2.1771   -2.9335    2.1202 C.2       1 <0>         0.3180
     14 O1         -2.2447   -4.0832    2.4844 O.2       1 <0>        -0.3395
     15 C12        -1.1820   -1.8259    2.2222 C.2       1 <0>         0.3022
     16 O2         -0.2864   -1.5216    2.9812 O.2       1 <0>        -0.3532
     17 N2         -3.9489   -1.1783    2.2027 N.pl3     1 <0>        -0.7029
     18 C13        -5.3175   -1.4306    2.2056 C.ar      1 <0>         0.2453
     19 C14        -5.8608   -2.4395    1.4104 C.ar      1 <0>        -0.2433
     20 C15        -7.2220   -2.6580    1.4424 C.ar      1 <0>         0.1418
     21 N3         -8.0067   -1.9271    2.2119 N.ar      1 <0>        -0.5189
     22 C16        -7.5311   -0.9635    2.9785 C.ar      1 <0>         0.1403
     23 C17        -6.1809   -0.6851    3.0081 C.ar      1 <0>        -0.2362
     24 H2          1.0039    1.9031    0.0027 H         1 <0>         0.0787
     25 H3         -0.5459    1.8868   -0.8726 H         1 <0>         0.0742
     26 H4         -0.5289    1.8773    0.9072 H         1 <0>         0.0635
     27 H5         -0.9914   -0.1983   -2.5024 H         1 <0>         0.1308
     28 H6          0.1611   -0.9927   -4.5283 H         1 <0>         0.1261
     29 H7          2.5069   -1.7302   -4.4010 H         1 <0>         0.1250
     30 H8          3.7006   -1.6725   -2.2481 H         1 <0>         0.1261
     31 H9          2.5507   -0.8702   -0.2240 H         1 <0>         0.1226
     32 H10        -3.5722   -2.4282    0.5050 H         1 <0>         0.1558
     33 H11        -5.2244   -3.0410    0.7782 H         1 <0>         0.1353
     34 H12        -7.6514   -3.4368    0.8297 H         1 <0>         0.1580
     35 H13        -8.2076   -0.3886    3.5935 H         1 <0>         0.1579
     36 H14        -5.7978    0.1017    3.6410 H         1 <0>         0.1352
     37 H15        -3.5840   -0.4762    2.7638 H         1 <0>         0.4121
@<TRIPOS>BOND
     1    1    2 1
     2    1   24 1
     3    1   25 1
     4    1   26 1
     5    2    3 1
     6    2    4 1
     7    2   10 1
     8    4    9 ar
     9    4    5 ar
    10    5    6 ar
    11    5   27 1
    12    6    7 ar
    13    6   28 1
    14    7    8 ar
    15    7   29 1
    16    8    9 ar
    17    8   30 1
    18    9   31 1
    19   10   11 2
    20   11   15 1
    21   11   12 1
    22   12   13 1
    23   12   32 1
    24   12   17 1
    25   13   14 2
    26   13   15 1
    27   15   16 2
    28   17   18 1
    29   17   37 1
    30   18   23 ar
    31   18   19 ar
    32   19   20 ar
    33   19   33 1
    34   20   21 ar
    35   20   34 1
    36   21   22 ar
    37   22   23 ar
    38   22   35 1
    39   23   36 1
@<TRIPOS>MOLECULE
CHEMBL466496__4
   37    39     0     0     0
SMALL
NO_CHARGES

@<TRIPOS>ATOM
      1 C1         -0.0187    1.5258    0.0104 C.3       1 <0>        -0.1382
      2 C2          0.0021   -0.0041    0.0020 C.3       1 <0>         0.0966
      3 H1          0.5293   -0.3651    0.8851 H         1 <0>         0.0687
      4 C3          0.7074   -0.4901   -1.2379 C.ar      1 <0>        -0.0816
      5 C4          0.0376   -0.5216   -2.4467 C.ar      1 <0>        -0.0924
      6 C5          0.6846   -0.9674   -3.5840 C.ar      1 <0>        -0.1199
      7 C6          2.0016   -1.3812   -3.5126 C.ar      1 <0>        -0.1154
      8 C7          2.6718   -1.3488   -2.3040 C.ar      1 <0>        -0.1209
      9 C8          2.0261   -0.8990   -1.1675 C.ar      1 <0>        -0.1075
     10 N1         -1.3723   -0.5112    0.0124 N.2       1 <0>        -0.3927
     11 C9         -1.7751   -1.2640    0.9803 C.2       1 <0>         0.1001
     12 C10        -1.1733   -1.8306    2.2481 C.3       1 <0>         0.0071
     13 C11        -2.5927   -1.8743    2.7711 C.2       1 <0>         0.3568
     14 O1         -3.1273   -1.8503    3.8540 O.2       1 <0>        -0.3581
     15 C12        -3.0385   -1.9551    1.3491 C.2       1 <0>         0.3777
     16 O2         -4.0041   -2.3903    0.7583 O.2       1 <0>        -0.3547
     17 N2         -0.5656   -3.1523    2.0751 N.2       1 <0>        -0.5412
     18 C13         0.7195   -3.3275    2.3305 C.2       1 <0>         0.2657
     19 C14         1.5668   -2.2195    2.7954 C.2       1 <0>        -0.2784
     20 C15         2.9041   -2.3917    2.7746 C.2       1 <0>         0.1423
     21 N3          3.4480   -3.5570    2.3292 N.pl3     1 <0>        -0.6166
     22 C16         2.7105   -4.6898    2.1717 C.2       1 <0>         0.1190
     23 C17         1.3616   -4.6401    2.1677 C.2       1 <0>        -0.1894
     24 H2          1.0039    1.9031    0.0027 H         1 <0>         0.0735
     25 H3         -0.5459    1.8868   -0.8726 H         1 <0>         0.0723
     26 H4         -0.5289    1.8773    0.9072 H         1 <0>         0.0625
     27 H5         -0.9914   -0.1983   -2.5024 H         1 <0>         0.1297
     28 H6          0.1611   -0.9927   -4.5283 H         1 <0>         0.1246
     29 H7          2.5069   -1.7302   -4.4010 H         1 <0>         0.1228
     30 H8          3.7006   -1.6725   -2.2481 H         1 <0>         0.1219
     31 H9          2.5507   -0.8702   -0.2240 H         1 <0>         0.1172
     32 H10        -0.5294   -1.1306    2.7806 H         1 <0>         0.1090
     33 H11         1.1308   -1.2946    3.1431 H         1 <0>         0.1415
     34 H12         3.5505   -1.5961    3.1147 H         1 <0>         0.1611
     35 H13         3.2097   -5.6402    2.0538 H         1 <0>         0.1667
     36 H14         0.7713   -5.5360    2.0439 H         1 <0>         0.1520
     37 H15         4.3941   -3.5809    2.1164 H         1 <0>         0.4180
@<TRIPOS>BOND
     1    1    2 1
     2    1   24 1
     3    1   25 1
     4    1   26 1
     5    2    3 1
     6    2    4 1
     7    2   10 1
     8    4    9 ar
     9    4    5 ar
    10    5    6 ar
    11    5   27 1
    12    6    7 ar
    13    6   28 1
    14    7    8 ar
    15    7   29 1
    16    8    9 ar
    17    8   30 1
    18    9   31 1
    19   10   11 2
    20   11   15 1
    21   11   12 1
    22   12   13 1
    23   12   17 1
    24   12   32 1
    25   13   14 2
    26   13   15 1
    27   15   16 2
    28   17   18 2
    29   18   23 1
    30   18   19 1
    31   19   20 2
    32   19   33 1
    33   20   21 1
    34   20   34 1
    35   21   22 1
    36   21   37 1
    37   22   23 2
    38   22   35 1
    39   23   36 1
@<TRIPOS>MOLECULE
CHEMBL466496__5
   37    39     0     0     0
SMALL
NO_CHARGES

@<TRIPOS>ATOM
      1 C1         -0.0187    1.5258    0.0104 C.3       1 <0>        -0.1328
      2 C2          0.0021   -0.0041    0.0020 C.3       1 <0>         0.0912
      3 H1          0.5293   -0.3651    0.8851 H         1 <0>         0.0727
      4 C3          0.7074   -0.4901   -1.2379 C.ar      1 <0>        -0.0868
      5 C4          0.0376   -0.5216   -2.4467 C.ar      1 <0>        -0.0932
      6 C5          0.6846   -0.9674   -3.5840 C.ar      1 <0>        -0.1219
      7 C6          2.0016   -1.3812   -3.5126 C.ar      1 <0>        -0.1158
      8 C7          2.6718   -1.3488   -2.3040 C.ar      1 <0>        -0.1189
      9 C8          2.0261   -0.8990   -1.1675 C.ar      1 <0>        -0.1111
     10 N1         -1.3723   -0.5112    0.0124 N.2       1 <0>        -0.3908
     11 C9         -1.7751   -1.2640    0.9803 C.2       1 <0>         0.1025
     12 C10        -3.0593   -1.9731    1.3523 C.3       1 <0>         0.0644
     13 C11        -2.1771   -2.9335    2.1202 C.2       1 <0>         0.3479
     14 O1         -2.2447   -4.0832    2.4844 O.2       1 <0>        -0.3601
     15 C12        -1.1820   -1.8259    2.2222 C.2       1 <0>         0.3239
     16 O2         -0.2864   -1.5216    2.9812 O.2       1 <0>        -0.3667
     17 N2         -3.9489   -1.1783    2.2027 N.2       1 <0>        -0.5497
     18 C13        -5.1670   -0.8779    1.7863 C.2       1 <0>         0.2718
     19 C14        -5.6635   -1.3302    0.4784 C.2       1 <0>        -0.2709
     20 C15        -6.7933   -0.7700    0.0005 C.2       1 <0>         0.1399
     21 N3         -7.4471    0.1899    0.7099 N.pl3     1 <0>        -0.6174
     22 C16        -7.1919    0.4210    2.0266 C.2       1 <0>         0.1209
     23 C17        -6.0857   -0.0824    2.6139 C.2       1 <0>        -0.1937
     24 H2          1.0039    1.9031    0.0027 H         1 <0>         0.0749
     25 H3         -0.5459    1.8868   -0.8726 H         1 <0>         0.0706
     26 H4         -0.5289    1.8773    0.9072 H         1 <0>         0.0630
     27 H5         -0.9914   -0.1983   -2.5024 H         1 <0>         0.1296
     28 H6          0.1611   -0.9927   -4.5283 H         1 <0>         0.1243
     29 H7          2.5069   -1.7302   -4.4010 H         1 <0>         0.1235
     30 H8          3.7006   -1.6725   -2.2481 H         1 <0>         0.1250
     31 H9          2.5507   -0.8702   -0.2240 H         1 <0>         0.1224
     32 H10        -3.5722   -2.4282    0.5050 H         1 <0>         0.1171
     33 H11        -5.1384   -2.0885   -0.0834 H         1 <0>         0.1454
     34 H12        -7.1833   -1.0864   -0.9556 H         1 <0>         0.1619
     35 H13        -7.8847    1.0096    2.6097 H         1 <0>         0.1668
     36 H14        -5.8786    0.0972    3.6585 H         1 <0>         0.1521
     37 H15        -8.1179    0.7281    0.2615 H         1 <0>         0.4180
@<TRIPOS>BOND
     1    1    2 1
     2    1   24 1
     3    1   25 1
     4    1   26 1
     5    2    3 1
     6    2    4 1
     7    2   10 1
     8    4    9 ar
     9    4    5 ar
    10    5    6 ar
    11    5   27 1
    12    6    7 ar
    13    6   28 1
    14    7    8 ar
    15    7   29 1
    16    8    9 ar
    17    8   30 1
    18    9   31 1
    19   10   11 2
    20   11   15 1
    21   11   12 1
    22   12   13 1
    23   12   17 1
    24   12   32 1
    25   13   14 2
    26   13   15 1
    27   15   16 2
    28   17   18 2
    29   18   23 1
    30   18   19 1
    31   19   20 2
    32   19   33 1
    33   20   21 1
    34   20   34 1
    35   21   22 1
    36   21   37 1
    37   22   23 2
    38   22   35 1
    39   23   36 1
@<TRIPOS>MOLECULE
CHEMBL1215526
   64    67     0     0     0
SMALL
USER_CHARGES

@<TRIPOS>ATOM
      1 C1          1.4847   -2.3436    2.9110 C.3       1 <0>        -0.1526
      2 C2          1.1011   -2.8137    1.5065 C.3       1 <0>         0.0464
      3 N1          0.6479   -1.6642    0.7120 N.3       1 <0>        -0.5034
      4 C3         -0.6127   -1.1281    1.2352 C.3       1 <0>         0.0812
      5 C4         -1.1170   -0.0140    0.3559 C.ar      1 <0>        -0.0472
      6 C5         -2.0714    0.8520    0.8695 C.ar      1 <0>        -0.1182
      7 C6         -2.5642    1.8846    0.0977 C.ar      1 <0>        -0.1146
      8 C7         -2.1055    2.0576   -1.1951 C.ar      1 <0>        -0.1214
      9 C8         -1.1548    1.1977   -1.7071 C.ar      1 <0>        -0.1168
     10 C9         -0.6571    0.1614   -0.9315 C.ar      1 <0>        -0.0781
     11 C10         0.3879   -0.7457   -1.5288 C.3       1 <0>        -0.0615
     12 C11         0.4968   -2.0295   -0.7055 C.3       1 <0>         0.0731
     13 H1          1.3662   -2.6006   -1.0311 H         1 <0>         0.1044
     14 C12        -0.7518   -2.8539   -0.8856 C.2       1 <0>         0.4783
     15 O1         -1.8179   -2.4351   -0.4864 O.2       1 <0>        -0.4867
     16 N2         -0.6839   -4.0566   -1.4901 N.am      1 <0>        -0.6676
     17 C13        -1.8564   -4.7804   -1.7437 C.ar      1 <0>         0.1570
     18 C14        -3.0349   -4.1094   -2.0399 C.ar      1 <0>        -0.1177
     19 C15        -4.1926   -4.8207   -2.2904 C.ar      1 <0>         0.1081
     20 C16        -4.1780   -6.2150   -2.2458 C.ar      1 <0>        -0.0007
     21 C17        -2.9954   -6.8884   -1.9491 C.ar      1 <0>        -0.1479
     22 C18        -1.8369   -6.1731   -1.7041 C.ar      1 <0>         0.0810
     23 O2         -0.6799   -6.8291   -1.4192 O.3       1 <0>        -0.3287
     24 C19        -0.7327   -8.2569   -1.3955 C.3       1 <0>         0.0246
     25 C20         0.6527   -8.8130   -1.0602 C.3       1 <0>        -0.0016
     26 N3          1.0473   -8.3674    0.2828 N.4       1 <0>        -0.3887
     27 C21         0.1473   -8.9618    1.2801 C.3       1 <0>        -0.0550
     28 C22         2.4273   -8.7920    0.5538 C.3       1 <0>        -0.0483
     29 C23        -5.4220   -6.9803   -2.5140 C.2       1 <0>        -0.2251
     30 C24        -6.6415   -6.7620   -1.9428 C.2       1 <0>         0.0972
     31 N4         -7.4997   -7.6686   -2.4544 N.pl3     1 <0>        -0.4653
     32 H2         -8.4399   -7.7511   -2.2309 H         1 <0>         0.4472
     33 N5         -6.7988   -8.4692   -3.3645 N.2       1 <0>        -0.2840
     34 C25        -5.5586   -8.0593   -3.4086 C.2       1 <0>         0.0711
     35 F1         -5.3388   -4.1660   -2.5780 F         1 <0>        -0.1242
     36 H3          2.2881   -1.6102    2.8419 H         1 <0>         0.0703
     37 H4          0.6182   -1.8890    3.3912 H         1 <0>         0.0590
     38 H5          1.8210   -3.1965    3.5005 H         1 <0>         0.0607
     39 H6          1.9676   -3.2683    1.0262 H         1 <0>         0.0765
     40 H7          0.2976   -3.5471    1.5756 H         1 <0>         0.0300
     41 H8         -1.3561   -1.9245    1.2696 H         1 <0>         0.0765
     42 H9         -0.4511   -0.7465    2.2433 H         1 <0>         0.0881
     43 H10        -2.4309    0.7173    1.8789 H         1 <0>         0.1188
     44 H11        -3.3070    2.5559    0.5026 H         1 <0>         0.1225
     45 H12        -2.4902    2.8631   -1.8029 H         1 <0>         0.1224
     46 H13        -0.7969    1.3325   -2.7172 H         1 <0>         0.1199
     47 H14         0.1084   -0.9950   -2.5524 H         1 <0>         0.0816
     48 H15         1.3510   -0.2352   -1.5323 H         1 <0>         0.1004
     49 H16         0.1768   -4.4210   -1.7497 H         1 <0>         0.4118
     50 H17        -3.0470   -3.0300   -2.0742 H         1 <0>         0.1598
     51 H18        -2.9819   -7.9677   -1.9141 H         1 <0>         0.1427
     52 H19        -1.4473   -8.5816   -0.6391 H         1 <0>         0.0889
     53 H20        -1.0453   -8.6253   -2.3725 H         1 <0>         0.1123
     54 H21         0.6234   -9.9023   -1.0876 H         1 <0>         0.1508
     55 H22         1.3762   -8.4505   -1.7905 H         1 <0>         0.1432
     56 H23         0.2106  -10.0486    1.2247 H         1 <0>         0.1256
     57 H24         0.4401   -8.6312    2.2766 H         1 <0>         0.1271
     58 H25        -0.8766   -8.6468    1.0790 H         1 <0>         0.1217
     59 H26         3.1053   -8.2822   -0.1307 H         1 <0>         0.1252
     60 H27         2.6901   -8.5392    1.5810 H         1 <0>         0.1260
     61 H28         2.5103   -9.8695    0.4122 H         1 <0>         0.1239
     62 H29        -6.8771   -6.0016   -1.2131 H         1 <0>         0.1818
     63 H30        -4.7743   -8.4770   -4.0225 H         1 <0>         0.1864
     64 H31         0.9887   -7.3614    0.3341 H         1 <0>         0.4321
@<TRIPOS>BOND
     1    1    2 1
     2    1   36 1
     3    1   37 1
     4    1   38 1
     5    2    3 1
     6    2   39 1
     7    2   40 1
     8    3   12 1
     9    3    4 1
    10    4    5 1
    11    4   41 1
    12    4   42 1
    13    5   10 ar
    14    5    6 ar
    15    6    7 ar
    16    6   43 1
    17    7    8 ar
    18    7   44 1
    19    8    9 ar
    20    8   45 1
    21    9   10 ar
    22    9   46 1
    23   10   11 1
    24   11   12 1
    25   11   47 1
    26   11   48 1
    27   12   13 1
    28   12   14 1
    29   14   15 2
    30   14   16 am
    31   16   17 1
    32   16   49 1
    33   17   22 ar
    34   17   18 ar
    35   18   19 ar
    36   18   50 1
    37   19   20 ar
    38   19   35 1
    39   20   21 ar
    40   20   29 1
    41   21   22 ar
    42   21   51 1
    43   22   23 1
    44   23   24 1
    45   24   25 1
    46   24   52 1
    47   24   53 1
    48   25   26 1
    49   25   54 1
    50   25   55 1
    51   26   27 1
    52   26   28 1
    53   26   64 1
    54   27   56 1
    55   27   57 1
    56   27   58 1
    57   28   59 1
    58   28   60 1
    59   28   61 1
    60   29   34 1
    61   29   30 2
    62   30   31 1
    63   30   62 1
    64   31   32 1
    65   31   33 1
    66   33   34 2
    67   34   63 1
@<TRIPOS>MOLECULE
CHEMBL523057
   48    51     0     0     0
SMALL
USER_CHARGES

@<TRIPOS>ATOM
      1 C1         -0.0187    1.5258    0.0104 C.3       1 <0>        -0.1642
      2 C2          0.0021   -0.0041    0.0020 C.3       1 <0>         0.1005
      3 N1          0.7106   -0.4894    1.1889 N.pl3     1 <0>        -0.4477
      4 C3          2.0597   -0.7391    1.2910 C.ar      1 <0>         0.0776
      5 C4          3.1498   -0.6442    0.4246 C.ar      1 <0>         0.0702
      6 C5          4.4056   -0.9911    0.8877 C.ar      1 <0>         0.0315
      7 N2          4.5899   -1.4082    2.1287 N.ar      1 <0>        -0.4555
      8 C6          3.5935   -1.5179    2.9941 C.ar      1 <0>         0.2810
      9 C7          2.2801   -1.1853    2.6069 C.ar      1 <0>         0.0490
     10 N3          1.0891   -1.1881    3.2319 N.2       1 <0>        -0.4270
     11 C8          0.1560   -0.7747    2.4089 C.2       1 <0>         0.3273
     12 C9         -1.2783   -0.6407    2.7451 C.2       1 <0>         0.1354
     13 C10        -1.8884   -0.9361    4.0476 C.2       1 <0>         0.3640
     14 N4         -3.1685   -0.6998    3.9637 N.2       1 <0>        -0.3457
     15 O1         -3.4450   -0.2542    2.6478 O.3       1 <0>         0.0457
     16 N5         -2.2211   -0.2330    1.9347 N.2       1 <0>        -0.2524
     17 N6         -1.2174   -1.3896    5.1757 N.pl3     1 <0>        -0.8004
     18 C11         3.8600   -1.9913    4.3715 C.2       1 <0>        -0.1434
     19 C12         3.1989   -1.5653    5.5531 C.2       1 <0>        -0.1586
     20 C13         3.7424   -2.2410    6.5821 C.2       1 <0>        -0.0162
     21 N7          4.7120   -3.0684    6.0947 N.pl3     1 <0>        -0.5536
     22 H1          5.2599   -3.6676    6.6255 H         1 <0>         0.4206
     23 C14         4.7821   -2.9224    4.7438 C.2       1 <0>         0.0453
     24 O2          2.9794   -0.2176   -0.8555 O.3       1 <0>        -0.3120
     25 C15         4.1464   -0.1491   -1.6773 C.3       1 <0>         0.0593
     26 C16         3.7598    0.3479   -3.0717 C.3       1 <0>        -0.1543
     27 C17         5.0093    0.4213   -3.9516 C.3       1 <0>        -0.0047
     28 N8          4.6381    0.8985   -5.2904 N.4       1 <0>        -0.6359
     29 H2          1.0039    1.9031    0.0027 H         1 <0>         0.0619
     30 H3         -0.5459    1.8868   -0.8726 H         1 <0>         0.0834
     31 H4         -0.5289    1.8773    0.9072 H         1 <0>         0.0648
     32 H5         -1.0205   -0.3814    0.0098 H         1 <0>         0.1074
     33 H6          0.5123   -0.3556   -0.8948 H         1 <0>         0.1000
     34 H7          5.2531   -0.9203    0.2220 H         1 <0>         0.1639
     35 H8         -0.2593   -1.5376    5.1434 H         1 <0>         0.4314
     36 H9         -1.7068   -1.5584    5.9960 H         1 <0>         0.4202
     37 H10         2.4066   -0.8340    5.6150 H         1 <0>         0.1409
     38 H11         3.4591   -2.1444    7.6197 H         1 <0>         0.1688
     39 H12         5.4530   -3.4506    4.0825 H         1 <0>         0.1709
     40 H13         4.8643    0.5398   -1.2322 H         1 <0>         0.0773
     41 H14         4.5941   -1.1398   -1.7559 H         1 <0>         0.0771
     42 H15         3.0419   -0.3409   -3.5169 H         1 <0>         0.0999
     43 H16         3.3121    1.3386   -2.9931 H         1 <0>         0.1002
     44 H17         5.7272    1.1102   -3.5065 H         1 <0>         0.1394
     45 H18         5.4571   -0.5694   -4.0302 H         1 <0>         0.1394
     46 H19         3.9736    0.2608   -5.7025 H         1 <0>         0.4373
     47 H20         4.2237    1.8156   -5.2177 H         1 <0>         0.4374
     48 H21         5.4622    0.9469   -5.8707 H         1 <0>         0.4424
@<TRIPOS>BOND
     1    1    2 1
     2    1   29 1
     3    1   30 1
     4    1   31 1
     5    2    3 1
     6    2   32 1
     7    2   33 1
     8    3   11 1
     9    3    4 1
    10    4    9 ar
    11    4    5 ar
    12    5    6 ar
    13    5   24 1
    14    6    7 ar
    15    6   34 1
    16    7    8 ar
    17    8    9 ar
    18    8   18 1
    19    9   10 1
    20   10   11 2
    21   11   12 1
    22   12   16 2
    23   12   13 1
    24   13   14 2
    25   13   17 1
    26   14   15 1
    27   15   16 1
    28   17   35 1
    29   17   36 1
    30   18   23 2
    31   18   19 1
    32   19   20 2
    33   19   37 1
    34   20   21 1
    35   20   38 1
    36   21   22 1
    37   21   23 1
    38   23   39 1
    39   24   25 1
    40   25   26 1
    41   25   40 1
    42   25   41 1
    43   26   27 1
    44   26   42 1
    45   26   43 1
    46   27   28 1
    47   27   44 1
    48   27   45 1
    49   28   46 1
    50   28   47 1
    51   28   48 1
@<TRIPOS>MOLECULE
CHEMBL567603
   54    58     0     0     0
SMALL
USER_CHARGES

@<TRIPOS>ATOM
      1 C1         -0.1347    2.2873    0.1263 C.ar      1 <0>        -0.1048
      2 C2          1.1369    2.8276    0.0773 C.ar      1 <0>        -0.1273
      3 C3          2.2396    1.9962    0.0821 C.ar      1 <0>        -0.0785
      4 C4          2.0761    0.6219    0.1357 C.ar      1 <0>        -0.1187
      5 C5          0.8048    0.0817    0.1846 C.ar      1 <0>        -0.0857
      6 C6         -0.2997    0.9172    0.1798 C.ar      1 <0>        -0.1116
      7 C7          0.8923   -1.4285    0.2367 C.3       1 <0>        -0.0869
      8 C8          2.3258   -1.7663   -0.2249 C.3       1 <0>        -0.1276
      9 C9          3.1049   -0.4883    0.1519 C.3       1 <0>         0.1980
     10 N1          3.6863   -0.6232    1.4898 N.pl3     1 <0>        -0.6643
     11 C10         4.7682    0.1526    1.8535 C.ar      1 <0>         0.6618
     12 N2          5.2793    1.0264    0.9916 N.ar      1 <0>        -0.6455
     13 C11         6.3209    1.7739    1.3420 C.ar      1 <0>         0.6585
     14 N3          6.8517    1.6480    2.5542 N.ar      1 <0>        -0.6721
     15 C12         6.3408    0.7744    3.4161 C.ar      1 <0>         0.6579
     16 N4          5.2957    0.0302    3.0674 N.ar      1 <0>        -0.6719
     17 N5          6.8919    0.6437    4.6746 N.pl3     1 <0>        -0.5965
     18 C13         6.3468   -0.3207    5.6425 C.3       1 <0>         0.1052
     19 C14         7.5029   -1.1621    6.1933 C.3       1 <0>        -0.0215
     20 N6          8.5367   -0.2738    6.7395 N.4       1 <0>        -0.5059
     21 C15         9.1173    0.5388    5.6631 C.3       1 <0>        -0.0212
     22 C16         8.0448    1.4605    5.0841 C.3       1 <0>         0.1042
     23 N7          6.8525    2.6819    0.4457 N.pl3     1 <0>        -0.6209
     24 C17         6.3724    2.7333   -0.8619 C.ar      1 <0>         0.2000
     25 C18         6.3347    3.9379   -1.5632 C.ar      1 <0>        -0.1999
     26 C19         5.8523    3.9463   -2.8553 C.ar      1 <0>         0.1238
     27 N8          5.4298    2.8342   -3.4270 N.ar      1 <0>        -0.4906
     28 C20         5.4493    1.6749   -2.7966 C.ar      1 <0>         0.1198
     29 C21         5.9225    1.5805   -1.5045 C.ar      1 <0>        -0.1676
     30 H1         -0.9980    2.9362    0.1272 H         1 <0>         0.1261
     31 H2          1.2678    3.8988    0.0350 H         1 <0>         0.1219
     32 H3          3.2327    2.4190    0.0435 H         1 <0>         0.1185
     33 H4         -1.2934    0.4959    0.2184 H         1 <0>         0.1225
     34 H5          0.7297   -1.7819    1.2549 H         1 <0>         0.0812
     35 H6          0.1624   -1.8732   -0.4398 H         1 <0>         0.0843
     36 H7          2.7135   -2.6299    0.3155 H         1 <0>         0.0866
     37 H8          2.3565   -1.9357   -1.3012 H         1 <0>         0.0963
     38 H9          3.8858   -0.2911   -0.5826 H         1 <0>         0.1038
     39 H10         3.3108   -1.2579    2.1200 H         1 <0>         0.4174
     40 H11         5.8617    0.2141    6.4590 H         1 <0>         0.0945
     41 H12         5.6254   -0.9699    5.1462 H         1 <0>         0.1422
     42 H13         7.1324   -1.8167    6.9822 H         1 <0>         0.1481
     43 H14         7.9284   -1.7647    5.3909 H         1 <0>         0.1343
     44 H15         8.1251    0.3330    7.4327 H         1 <0>         0.4292
     45 H16         9.9365    1.1377    6.0613 H         1 <0>         0.1484
     46 H17         9.4940   -0.1152    4.8767 H         1 <0>         0.1342
     47 H18         8.4454    1.9885    4.2187 H         1 <0>         0.1419
     48 H19         7.7340    2.1783    5.8432 H         1 <0>         0.0942
     49 H20         7.5598    3.2834    0.7267 H         1 <0>         0.4289
     50 H21         6.6782    4.8515   -1.1010 H         1 <0>         0.1380
     51 H22         5.8194    4.8747   -3.4061 H         1 <0>         0.1617
     52 H23         5.0941    0.7881   -3.3004 H         1 <0>         0.1577
     53 H24         5.9404    0.6278   -0.9961 H         1 <0>         0.1436
     54 H25         9.2619   -0.8282    7.1693 H         1 <0>         0.4344
@<TRIPOS>BOND
     1    1    6 ar
     2    1    2 ar
     3    1   30 1
     4    2    3 ar
     5    2   31 1
     6    3    4 ar
     7    3   32 1
     8    4    9 1
     9    4    5 ar
    10    5    6 ar
    11    5    7 1
    12    6   33 1
    13    7    8 1
    14    7   34 1
    15    7   35 1
    16    8    9 1
    17    8   36 1
    18    8   37 1
    19    9   10 1
    20    9   38 1
    21   10   11 1
    22   10   39 1
    23   11   16 ar
    24   11   12 ar
    25   12   13 ar
    26   13   14 ar
    27   13   23 1
    28   14   15 ar
    29   15   16 ar
    30   15   17 1
    31   17   22 1
    32   17   18 1
    33   18   19 1
    34   18   40 1
    35   18   41 1
    36   19   20 1
    37   19   42 1
    38   19   43 1
    39   20   21 1
    40   20   44 1
    41   20   54 1
    42   21   22 1
    43   21   45 1
    44   21   46 1
    45   22   47 1
    46   22   48 1
    47   23   24 1
    48   23   49 1
    49   24   29 ar
    50   24   25 ar
    51   25   26 ar
    52   25   50 1
    53   26   27 ar
    54   26   51 1
    55   27   28 ar
    56   28   29 ar
    57   28   52 1
    58   29   53 1
@<TRIPOS>MOLECULE
CHEMBL567603__1
   54    58     0     0     0
SMALL
USER_CHARGES

@<TRIPOS>ATOM
      1 C1          0.1027    2.4743   -0.4217 C.ar      1 <0>        -0.1078
      2 C2          1.3923    2.9674   -0.3504 C.ar      1 <0>        -0.1257
      3 C3          2.4609    2.0951   -0.2842 C.ar      1 <0>        -0.0815
      4 C4          2.2453    0.7270   -0.2890 C.ar      1 <0>        -0.1132
      5 C5          0.9560    0.2340   -0.3604 C.ar      1 <0>        -0.0881
      6 C6         -0.1144    1.1104   -0.4266 C.ar      1 <0>        -0.1066
      7 C7          0.9855   -1.2793   -0.3509 C.3       1 <0>        -0.0826
      8 C8          2.4392   -1.6572   -0.7065 C.3       1 <0>        -0.1255
      9 C9          3.2295   -0.4213   -0.2265 C.3       1 <0>         0.1993
     10 N1          4.3648   -0.1668   -1.1168 N.pl3     1 <0>        -0.6674
     11 C10         5.4467    0.5609   -0.6644 C.ar      1 <0>         0.6600
     12 N2          5.4611    1.0262    0.5809 N.ar      1 <0>        -0.6457
     13 C11         6.5033    1.7266    1.0167 C.ar      1 <0>         0.6588
     14 N3          7.5313    1.9620    0.2074 N.ar      1 <0>        -0.6721
     15 C12         7.5170    1.4968   -1.0377 C.ar      1 <0>         0.6576
     16 N4          6.4768    0.7919   -1.4721 N.ar      1 <0>        -0.6721
     17 N5          8.5843    1.7412   -1.8779 N.pl3     1 <0>        -0.5965
     18 C13         8.5876    1.2416   -3.2616 C.3       1 <0>         0.1053
     19 C14         8.9344    2.4045   -4.1971 C.3       1 <0>        -0.0217
     20 N6         10.2000    3.0143   -3.7699 N.4       1 <0>        -0.5058
     21 C15        10.0426    3.6122   -2.4381 C.3       1 <0>        -0.0213
     22 C16         9.7482    2.5139   -1.4172 C.3       1 <0>         0.1042
     23 N7          6.5179    2.2107    2.3112 N.pl3     1 <0>        -0.6214
     24 C17         5.4979    1.8650    3.1962 C.ar      1 <0>         0.2008
     25 C18         4.9076    0.6026    3.1493 C.ar      1 <0>        -0.1639
     26 C19         3.9012    0.2999    4.0426 C.ar      1 <0>         0.1194
     27 N8          3.4965    1.1870    4.9320 N.ar      1 <0>        -0.4901
     28 C20         4.0299    2.3918    5.0081 C.ar      1 <0>         0.1232
     29 C21         5.0454    2.7706    4.1550 C.ar      1 <0>        -0.1980
     30 H1         -0.7344    3.1551   -0.4690 H         1 <0>         0.1262
     31 H2          1.5639    4.0337   -0.3469 H         1 <0>         0.1201
     32 H3          3.4681    2.4810   -0.2288 H         1 <0>         0.1065
     33 H4         -1.1221    0.7260   -0.4820 H         1 <0>         0.1240
     34 H5          0.7280   -1.6565    0.6388 H         1 <0>         0.0895
     35 H6          0.2981   -1.6757   -1.0982 H         1 <0>         0.0838
     36 H7          2.7508   -2.5505   -0.1653 H         1 <0>         0.0904
     37 H8          2.5516   -1.7954   -1.7818 H         1 <0>         0.0817
     38 H9          3.5755   -0.5676    0.7967 H         1 <0>         0.1103
     39 H10         4.3561   -0.5097   -2.0241 H         1 <0>         0.4183
     40 H11         9.3336    0.4536   -3.3647 H         1 <0>         0.0949
     41 H12         7.6012    0.8513   -3.5124 H         1 <0>         0.1422
     42 H13         9.0359    2.0328   -5.2167 H         1 <0>         0.1482
     43 H14         8.1405    3.1504   -4.1594 H         1 <0>         0.1341
     44 H15        10.9186    2.3068   -3.7369 H         1 <0>         0.4292
     45 H16        10.9607    4.1305   -2.1615 H         1 <0>         0.1485
     46 H17         9.2152    4.3216   -2.4536 H         1 <0>         0.1339
     47 H18         9.5289    2.9645   -0.4492 H         1 <0>         0.1418
     48 H19        10.6134    1.8566   -1.3308 H         1 <0>         0.0945
     49 H20         7.2380    2.7909    2.6039 H         1 <0>         0.4287
     50 H21         5.2335   -0.1277    2.4236 H         1 <0>         0.1404
     51 H22         3.4382   -0.6754    4.0136 H         1 <0>         0.1578
     52 H23         3.6696    3.0885    5.7504 H         1 <0>         0.1616
     53 H24         5.4809    3.7564    4.2259 H         1 <0>         0.1376
     54 H25        10.4663    3.7302   -4.4293 H         1 <0>         0.4344
@<TRIPOS>BOND
     1    1    6 ar
     2    1    2 ar
     3    1   30 1
     4    2    3 ar
     5    2   31 1
     6    3    4 ar
     7    3   32 1
     8    4    9 1
     9    4    5 ar
    10    5    6 ar
    11    5    7 1
    12    6   33 1
    13    7    8 1
    14    7   34 1
    15    7   35 1
    16    8    9 1
    17    8   36 1
    18    8   37 1
    19    9   10 1
    20    9   38 1
    21   10   11 1
    22   10   39 1
    23   11   16 ar
    24   11   12 ar
    25   12   13 ar
    26   13   14 ar
    27   13   23 1
    28   14   15 ar
    29   15   16 ar
    30   15   17 1
    31   17   22 1
    32   17   18 1
    33   18   19 1
    34   18   40 1
    35   18   41 1
    36   19   20 1
    37   19   42 1
    38   19   43 1
    39   20   21 1
    40   20   44 1
    41   20   54 1
    42   21   22 1
    43   21   45 1
    44   21   46 1
    45   22   47 1
    46   22   48 1
    47   23   24 1
    48   23   49 1
    49   24   29 ar
    50   24   25 ar
    51   25   26 ar
    52   25   50 1
    53   26   27 ar
    54   26   51 1
    55   27   28 ar
    56   28   29 ar
    57   28   52 1
    58   29   53 1
@<TRIPOS>MOLECULE
CHEMBL1084900
   40    42     0     0     0
SMALL
USER_CHARGES

@<TRIPOS>ATOM
      1 C1         -0.0318    1.3524    0.0114 C.ar      1 <0>        -0.1168
      2 C2          1.1550    2.0610   -0.0045 C.ar      1 <0>        -0.1208
      3 C3          2.3621    1.3875   -0.0199 C.ar      1 <0>        -0.1130
      4 C4          2.3823    0.0053   -0.0189 C.ar      1 <0>        -0.0881
      5 C5          1.1956   -0.7034   -0.0021 C.ar      1 <0>        -0.0951
      6 C6         -0.0115   -0.0298    0.0119 C.ar      1 <0>        -0.1214
      7 C7          3.6982   -0.7290   -0.0367 C.3       1 <0>         0.1001
      8 N1          4.1452   -0.9663    1.3424 N.3       1 <0>        -0.6684
      9 C8          5.4280   -1.6818    1.3643 C.3       1 <0>         0.0416
     10 C9          5.8535   -1.9067    2.7923 C.2       1 <0>         0.5157
     11 O1          5.1567   -1.5100    3.7023 O.2       1 <0>        -0.4949
     12 N2          7.0083   -2.5487    3.0583 N.am      1 <0>        -0.6732
     13 C10         7.4498   -2.6738    4.3769 C.ar      1 <0>         0.1948
     14 C11         6.5276   -2.8359    5.3971 C.ar      1 <0>        -0.1189
     15 C12         6.9765   -2.9604    6.7102 C.ar      1 <0>         0.0313
     16 C13         6.0511   -3.1346    7.8319 C.2       1 <0>        -0.2025
     17 C14         6.5392   -3.2499    9.0772 C.2       1 <0>         0.1198
     18 N3          7.8781   -3.2110    9.3447 N.am      1 <0>        -0.6328
     19 H1          8.1745   -3.2997   10.2640 H         1 <0>         0.4176
     20 C15         8.8018   -3.0542    8.3761 C.2       1 <0>         0.5511
     21 O2          9.9872   -3.0242    8.6548 O.2       1 <0>        -0.5235
     22 C16         8.3646   -2.9197    6.9837 C.ar      1 <0>        -0.1641
     23 C17         9.2740   -2.7554    5.9377 C.ar      1 <0>        -0.0167
     24 C18         8.8181   -2.6401    4.6551 C.ar      1 <0>        -0.0835
     25 Cl1         9.9528   -2.4430    3.3561 Cl        1 <0>        -0.0563
     26 H2         -0.9747    1.8786    0.0279 H         1 <0>         0.1219
     27 H3          1.1392    3.1409   -0.0053 H         1 <0>         0.1221
     28 H4          3.2893    1.9411   -0.0331 H         1 <0>         0.1186
     29 H5          1.2114   -1.7832   -0.0017 H         1 <0>         0.1233
     30 H6         -0.9387   -0.5834    0.0246 H         1 <0>         0.1229
     31 H7          3.5747   -1.6837   -0.5480 H         1 <0>         0.0849
     32 H8          4.4419   -0.1293   -0.5616 H         1 <0>         0.0432
     33 H9          4.2052   -0.1006    1.8571 H         1 <0>         0.3546
     34 H10         5.3164   -2.6431    0.8627 H         1 <0>         0.1105
     35 H11         6.1836   -1.0888    0.8491 H         1 <0>         0.0685
     36 H12         7.5327   -2.9238    2.3336 H         1 <0>         0.4162
     37 H13         5.4707   -2.8651    5.1772 H         1 <0>         0.1613
     38 H14         4.9857   -3.1696    7.6589 H         1 <0>         0.1529
     39 H15         5.8481   -3.3776    9.8972 H         1 <0>         0.1647
     40 H16        10.3342   -2.7238    6.1411 H         1 <0>         0.1525
@<TRIPOS>BOND
     1    1    6 ar
     2    1    2 ar
     3    1   26 1
     4    2    3 ar
     5    2   27 1
     6    3    4 ar
     7    3   28 1
     8    4    5 ar
     9    4    7 1
    10    5    6 ar
    11    5   29 1
    12    6   30 1
    13    7    8 1
    14    7   31 1
    15    7   32 1
    16    8    9 1
    17    8   33 1
    18    9   10 1
    19    9   34 1
    20    9   35 1
    21   10   11 2
    22   10   12 am
    23   12   13 1
    24   12   36 1
    25   13   24 ar
    26   13   14 ar
    27   14   15 ar
    28   14   37 1
    29   15   22 ar
    30   15   16 1
    31   16   17 2
    32   16   38 1
    33   17   18 1
    34   17   39 1
    35   18   19 1
    36   18   20 am
    37   20   21 2
    38   20   22 1
    39   22   23 ar
    40   23   24 ar
    41   23   40 1
    42   24   25 1
@<TRIPOS>MOLECULE
CHEMBL1084900__1
   41    43     0     0     0
SMALL
USER_CHARGES

@<TRIPOS>ATOM
      1 C1         -0.0321    1.3517    0.0114 C.ar      1 <0>        -0.0796
      2 C2          1.1545    2.0605   -0.0045 C.ar      1 <0>        -0.1146
      3 C3          2.3617    1.3872   -0.0199 C.ar      1 <0>        -0.0906
      4 C4          2.3822    0.0050   -0.0189 C.ar      1 <0>        -0.1710
      5 C5          1.1956   -0.7039   -0.0021 C.ar      1 <0>        -0.0908
      6 C6         -0.0116   -0.0305    0.0118 C.ar      1 <0>        -0.1148
      7 C7          3.6982   -0.7291   -0.0367 C.3       1 <0>         0.0480
      8 N1          4.1452   -0.9664    1.3424 N.4       1 <0>        -0.4960
      9 C8          5.4280   -1.6819    1.3251 C.3       1 <0>        -0.0281
     10 C9          5.8866   -1.9253    2.7398 C.2       1 <0>         0.5019
     11 O1          5.2113   -1.5406    3.6708 O.2       1 <0>        -0.5041
     12 N2          7.0472   -2.5705    2.9704 N.am      1 <0>        -0.6448
     13 C10         7.5192   -2.7127    4.2766 C.ar      1 <0>         0.1693
     14 C11         6.6211   -2.8882    5.3159 C.ar      1 <0>        -0.1124
     15 C12         7.1004   -3.0298    6.6164 C.ar      1 <0>         0.0349
     16 C13         6.2014   -3.2187    7.7570 C.2       1 <0>        -0.2169
     17 C14         6.7182   -3.3501    8.9889 C.2       1 <0>         0.1373
     18 N3          8.0631   -3.3146    9.2257 N.am      1 <0>        -0.6305
     19 H1          8.3807   -3.4152   10.1366 H         1 <0>         0.4226
     20 C15         8.9639   -3.1451    8.2380 C.2       1 <0>         0.5475
     21 O2         10.1556   -3.1185    8.4894 O.2       1 <0>        -0.5108
     22 C16         8.4945   -2.9925    6.8580 C.ar      1 <0>        -0.1495
     23 C17         9.3793   -2.8145    5.7934 C.ar      1 <0>        -0.0126
     24 C18         8.8937   -2.6825    4.5233 C.ar      1 <0>        -0.0780
     25 Cl1         9.9979   -2.4683    3.2009 Cl        1 <0>        -0.0482
     26 H2         -0.9752    1.8777    0.0279 H         1 <0>         0.1368
     27 H3          1.1385    3.1404   -0.0052 H         1 <0>         0.1371
     28 H4          3.2888    1.9410   -0.0330 H         1 <0>         0.1323
     29 H5          1.2116   -1.7838   -0.0017 H         1 <0>         0.1323
     30 H6         -0.9387   -0.5843    0.0246 H         1 <0>         0.1370
     31 H7          3.5748   -1.6838   -0.5480 H         1 <0>         0.1419
     32 H8          4.4418   -0.1293   -0.5615 H         1 <0>         0.1418
     33 H9          4.2594   -0.0826    1.8157 H         1 <0>         0.4358
     34 H10         5.3047   -2.6366    0.8138 H         1 <0>         0.1685
     35 H11         6.1716   -1.0821    0.8002 H         1 <0>         0.1688
     36 H12         7.5545   -2.9361    2.2289 H         1 <0>         0.4244
     37 H13         5.5593   -2.9147    5.1202 H         1 <0>         0.1586
     38 H14         5.1321   -3.2516    7.6084 H         1 <0>         0.1537
     39 H15         6.0464   -3.4886    9.8231 H         1 <0>         0.1691
     40 H16        10.4440   -2.7854    5.9724 H         1 <0>         0.1587
     41 H17         3.4569   -1.5216    1.8282 H         1 <0>         0.4352
@<TRIPOS>BOND
     1    1    6 ar
     2    1    2 ar
     3    1   26 1
     4    2    3 ar
     5    2   27 1
     6    3    4 ar
     7    3   28 1
     8    4    5 ar
     9    4    7 1
    10    5    6 ar
    11    5   29 1
    12    6   30 1
    13    7    8 1
    14    7   31 1
    15    7   32 1
    16    8    9 1
    17    8   33 1
    18    8   41 1
    19    9   10 1
    20    9   34 1
    21    9   35 1
    22   10   11 2
    23   10   12 am
    24   12   13 1
    25   12   36 1
    26   13   24 ar
    27   13   14 ar
    28   14   15 ar
    29   14   37 1
    30   15   22 ar
    31   15   16 1
    32   16   17 2
    33   16   38 1
    34   17   18 1
    35   17   39 1
    36   18   19 1
    37   18   20 am
    38   20   21 2
    39   20   22 1
    40   22   23 ar
    41   23   24 ar
    42   23   40 1
    43   24   25 1
@<TRIPOS>MOLECULE
CHEMBL493066
   44    47     0     0     0
SMALL
USER_CHARGES

@<TRIPOS>ATOM
      1 C1         -0.2102    2.1474   -0.5608 C.3       1 <0>        -0.1628
      2 C2          0.0202    0.6549   -0.3155 C.3       1 <0>         0.1025
      3 N1          0.6945    0.0677   -1.4760 N.pl3     1 <0>        -0.4507
      4 C3          0.0930   -0.5717   -2.5261 C.ar      1 <0>         0.1322
      5 C4         -1.2312   -0.8841   -2.8739 C.ar      1 <0>        -0.1936
      6 C5         -1.4622   -1.5693   -4.0656 C.ar      1 <0>         0.1495
      7 N2         -0.4636   -1.9199   -4.8537 N.ar      1 <0>        -0.4806
      8 C6          0.7939   -1.6490   -4.5698 C.ar      1 <0>         0.2269
      9 C7          1.1276   -0.9655   -3.3984 C.ar      1 <0>        -0.0033
     10 N3          2.2916   -0.5527   -2.8450 N.2       1 <0>        -0.4320
     11 C8          2.0446    0.0619   -1.7144 C.2       1 <0>         0.3429
     12 C9          3.0684    0.6564   -0.8271 C.2       1 <0>         0.1264
     13 C10         4.5166    0.6649   -1.0688 C.2       1 <0>         0.3634
     14 N4          5.0949    1.2763   -0.0720 N.2       1 <0>        -0.3413
     15 O1          4.0861    1.6817    0.8360 O.3       1 <0>         0.0517
     16 N5          2.8389    1.2700    0.3052 N.2       1 <0>        -0.2450
     17 N6          5.1606    0.1154   -2.1696 N.pl3     1 <0>        -0.8007
     18 C11        -2.3527   -0.4963   -1.9974 C.2       1 <0>         0.5784
     19 O2         -2.4526    0.6519   -1.6100 O.2       1 <0>        -0.4921
     20 N7         -3.2665   -1.4147   -1.6260 N.am      1 <0>        -0.6295
     21 C12        -3.0967   -2.8341   -1.9733 C.3       1 <0>         0.0764
     22 C13        -3.2790   -3.6703   -0.7023 C.3       1 <0>        -0.0211
     23 N8         -4.5723   -3.3475   -0.0865 N.4       1 <0>        -0.5052
     24 C14        -4.5796   -1.9478    0.3571 C.3       1 <0>        -0.0207
     25 C15        -4.4589   -1.0271   -0.8566 C.3       1 <0>         0.0860
     26 H1          0.7486    2.6429   -0.7130 H         1 <0>         0.0612
     27 H2         -0.8316    2.2783   -1.4467 H         1 <0>         0.0763
     28 H3         -0.7119    2.5843    0.3027 H         1 <0>         0.0844
     29 H4          0.6416    0.5240    0.5705 H         1 <0>         0.1037
     30 H5         -0.9386    0.1594   -0.1632 H         1 <0>         0.0929
     31 H6         -2.4746   -1.8175   -4.3482 H         1 <0>         0.1707
     32 H7          1.5743   -1.9585   -5.2493 H         1 <0>         0.1845
     33 H8          4.6448   -0.3226   -2.8646 H         1 <0>         0.4299
     34 H9          6.1263    0.1697   -2.2436 H         1 <0>         0.4220
     35 H10        -3.8447   -3.1224   -2.7119 H         1 <0>         0.1065
     36 H11        -2.0974   -2.9952   -2.3776 H         1 <0>         0.1308
     37 H12        -3.2521   -4.7297   -0.9573 H         1 <0>         0.1515
     38 H13        -2.4760   -3.4447   -0.0006 H         1 <0>         0.1342
     39 H14        -5.3093   -3.4891   -0.7610 H         1 <0>         0.4310
     40 H15        -5.5111   -1.7380    0.8827 H         1 <0>         0.1508
     41 H16        -3.7372   -1.7744    1.0267 H         1 <0>         0.1345
     42 H17        -4.3598    0.0058   -0.5229 H         1 <0>         0.1389
     43 H18        -5.3468   -1.1299   -1.4804 H         1 <0>         0.1016
     44 H19        -4.7256   -3.9514    0.7071 H         1 <0>         0.4371
@<TRIPOS>BOND
     1    1    2 1
     2    1   26 1
     3    1   27 1
     4    1   28 1
     5    2    3 1
     6    2   29 1
     7    2   30 1
     8    3   11 1
     9    3    4 1
    10    4    9 ar
    11    4    5 ar
    12    5    6 ar
    13    5   18 1
    14    6    7 ar
    15    6   31 1
    16    7    8 ar
    17    8    9 ar
    18    8   32 1
    19    9   10 1
    20   10   11 2
    21   11   12 1
    22   12   16 2
    23   12   13 1
    24   13   14 2
    25   13   17 1
    26   14   15 1
    27   15   16 1
    28   17   33 1
    29   17   34 1
    30   18   19 2
    31   18   20 am
    32   20   25 1
    33   20   21 1
    34   21   22 1
    35   21   35 1
    36   21   36 1
    37   22   23 1
    38   22   37 1
    39   22   38 1
    40   23   24 1
    41   23   39 1
    42   23   44 1
    43   24   25 1
    44   24   40 1
    45   24   41 1
    46   25   42 1
    47   25   43 1
@<TRIPOS>MOLECULE
CHEMBL493066__1
   43    46     0     0     0
SMALL
USER_CHARGES

@<TRIPOS>ATOM
      1 C1         -0.1134    1.7675   -0.2158 C.3       1 <0>        -0.1615
      2 C2          0.0214    0.2477   -0.1014 C.3       1 <0>         0.0741
      3 N1          0.7011   -0.2731   -1.2901 N.pl3     1 <0>        -0.4463
      4 C3          0.1012   -0.7400   -2.4283 C.ar      1 <0>         0.1301
      5 C4         -1.2255   -0.8908   -2.8635 C.ar      1 <0>        -0.1712
      6 C5         -1.4534   -1.4222   -4.1318 C.ar      1 <0>         0.1456
      7 N2         -0.4497   -1.7779   -4.9111 N.ar      1 <0>        -0.4789
      8 C6          0.8103   -1.6553   -4.5468 C.ar      1 <0>         0.2114
      9 C7          1.1412   -1.1329   -3.2945 C.ar      1 <0>        -0.0052
     10 N3          2.3067   -0.8896   -2.6509 N.2       1 <0>        -0.4356
     11 C8          2.0560   -0.3778   -1.4710 C.2       1 <0>         0.3298
     12 C9          3.0805    0.0230   -0.4817 C.2       1 <0>         0.1337
     13 C10         4.5345   -0.0762   -0.6601 C.2       1 <0>         0.3648
     14 N4          5.1115    0.3708    0.4211 N.2       1 <0>        -0.3484
     15 O1          4.0963    0.7690    1.3251 O.3       1 <0>         0.0452
     16 N5          2.8471    0.5321    0.7005 N.2       1 <0>        -0.2454
     17 N6          5.1842   -0.5632   -1.7867 N.pl3     1 <0>        -0.8009
     18 C11        -2.3527   -0.4963   -1.9974 C.2       1 <0>         0.5676
     19 O2         -2.4983   -1.0231   -0.9113 O.2       1 <0>        -0.5260
     20 N7         -3.2211    0.4482   -2.4101 N.am      1 <0>        -0.6018
     21 C12        -3.1294    1.0188   -3.7626 C.3       1 <0>         0.1031
     22 C13        -3.1234    2.5468   -3.6469 C.3       1 <0>         0.0429
     23 N8         -4.2909    2.9802   -2.8677 N.3       1 <0>        -0.6876
     24 C14        -4.2341    2.4669   -1.4925 C.3       1 <0>         0.0424
     25 C15        -4.2894    0.9312   -1.5220 C.3       1 <0>         0.1142
     26 H1          0.8773    2.2153   -0.2934 H         1 <0>         0.0634
     27 H2         -0.6945    2.0148   -1.1042 H         1 <0>         0.0561
     28 H3         -0.6191    2.1550    0.6686 H         1 <0>         0.0862
     29 H4          0.6025    0.0004    0.7870 H         1 <0>         0.1071
     30 H5         -0.9693   -0.2001   -0.0238 H         1 <0>         0.1255
     31 H6         -2.4676   -1.5450   -4.4821 H         1 <0>         0.1726
     32 H7          1.5948   -1.9617   -5.2229 H         1 <0>         0.1796
     33 H8          4.6688   -0.8761   -2.5465 H         1 <0>         0.4308
     34 H9          6.1535   -0.5905   -1.8137 H         1 <0>         0.4195
     35 H10        -2.2082    0.6841   -4.2395 H         1 <0>         0.0897
     36 H11        -3.9879    0.6997   -4.3536 H         1 <0>         0.0875
     37 H12        -2.2111    2.8700   -3.1455 H         1 <0>         0.0342
     38 H13        -3.1671    2.9871   -4.6430 H         1 <0>         0.0926
     39 H14        -4.3776    3.9855   -2.8751 H         1 <0>         0.3507
     40 H15        -3.3063    2.7912   -1.0211 H         1 <0>         0.0361
     41 H16        -5.0833    2.8493   -0.9261 H         1 <0>         0.0924
     42 H17        -5.2573    0.6039   -1.9018 H         1 <0>         0.0827
     43 H18        -4.1355    0.5386   -0.5169 H         1 <0>         0.0975
@<TRIPOS>BOND
     1    1    2 1
     2    1   26 1
     3    1   27 1
     4    1   28 1
     5    2    3 1
     6    2   29 1
     7    2   30 1
     8    3   11 1
     9    3    4 1
    10    4    9 ar
    11    4    5 ar
    12    5    6 ar
    13    5   18 1
    14    6    7 ar
    15    6   31 1
    16    7    8 ar
    17    8    9 ar
    18    8   32 1
    19    9   10 1
    20   10   11 2
    21   11   12 1
    22   12   16 2
    23   12   13 1
    24   13   14 2
    25   13   17 1
    26   14   15 1
    27   15   16 1
    28   17   33 1
    29   17   34 1
    30   18   19 2
    31   18   20 am
    32   20   25 1
    33   20   21 1
    34   21   22 1
    35   21   35 1
    36   21   36 1
    37   22   23 1
    38   22   37 1
    39   22   38 1
    40   23   24 1
    41   23   39 1
    42   24   25 1
    43   24   40 1
    44   24   41 1
    45   25   42 1
    46   25   43 1
@<TRIPOS>MOLECULE
CHEMBL1083967
   43    45     0     0     0
SMALL
USER_CHARGES

@<TRIPOS>ATOM
      1 C1         -0.0187    1.5258    0.0104 C.3       1 <0>        -0.1598
      2 C2          0.0021   -0.0041    0.0020 C.3       1 <0>        -0.1378
      3 C3          0.7421   -0.5109    1.2415 C.3       1 <0>        -0.1440
      4 C4          0.7628   -2.0407    1.2331 C.3       1 <0>         0.0863
      5 C5          1.3823   -2.5418    2.5123 C.ar      1 <0>        -0.1501
      6 C6          2.7656   -2.5460    2.6399 C.ar      1 <0>        -0.1087
      7 C7          3.3400   -3.0031    3.8089 C.ar      1 <0>        -0.0509
      8 C8          2.5328   -3.4492    4.8340 C.ar      1 <0>        -0.1067
      9 C9          1.1234   -3.4556    4.7303 C.ar      1 <0>        -0.0775
     10 C10         0.5746   -2.9736    3.5160 C.ar      1 <0>        -0.0322
     11 C11         0.4294   -3.9582    5.9021 C.2       1 <0>        -0.0564
     12 C12         1.1546   -4.3694    6.9706 C.2       1 <0>        -0.1015
     13 S1          2.8399   -4.1007    6.4554 S.3       1 <0>         0.1162
     14 C13         0.6655   -4.9105    8.2551 C.ar      1 <0>         0.2909
     15 C14         1.5671   -5.2831    9.2593 C.ar      1 <0>        -0.2743
     16 C15         1.0620   -5.7845   10.4443 C.ar      1 <0>         0.2090
     17 N1         -0.2490   -5.8968   10.5942 N.ar      1 <0>        -0.5647
     18 C16        -1.0805   -5.5365    9.6272 C.ar      1 <0>         0.5772
     19 N2         -0.6414   -5.0466    8.4788 N.ar      1 <0>        -0.5596
     20 N3         -2.4438   -5.6705    9.8257 N.pl3     1 <0>        -0.8162
     21 C17        -1.0761   -4.0213    5.9303 C.3       1 <0>        -0.1129
     22 N4          1.5529   -2.5134    0.0885 N.4       1 <0>        -0.6368
     23 H1          1.0039    1.9031    0.0027 H         1 <0>         0.0609
     24 H2         -0.5459    1.8868   -0.8726 H         1 <0>         0.0672
     25 H3         -0.5289    1.8773    0.9072 H         1 <0>         0.0647
     26 H4         -1.0205   -0.3814    0.0098 H         1 <0>         0.0792
     27 H5          0.5123   -0.3556   -0.8948 H         1 <0>         0.0581
     28 H6          1.7647   -0.1336    1.2338 H         1 <0>         0.0917
     29 H7          0.2319   -0.1594    2.1383 H         1 <0>         0.1141
     30 H8         -0.2567   -2.4175    1.1513 H         1 <0>         0.1492
     31 H9          3.3874   -2.1944    1.8298 H         1 <0>         0.1320
     32 H10         4.4143   -3.0115    3.9197 H         1 <0>         0.1458
     33 H11        -0.4973   -2.9526    3.3855 H         1 <0>         0.1383
     34 H12         2.6321   -5.1817    9.1114 H         1 <0>         0.1461
     35 H13         1.7295   -6.0818   11.2395 H         1 <0>         0.1779
     36 H14        -2.7793   -6.0244   10.6642 H         1 <0>         0.4199
     37 H15        -3.0636   -5.4106    9.1263 H         1 <0>         0.4157
     38 H16        -1.4064   -4.9873    5.5486 H         1 <0>         0.0774
     39 H17        -1.4258   -3.8966    6.9551 H         1 <0>         0.1059
     40 H18        -1.4848   -3.2255    5.3076 H         1 <0>         0.0606
     41 H19         1.1381   -2.1780   -0.7680 H         1 <0>         0.4362
     42 H20         2.4967   -2.1647    0.1642 H         1 <0>         0.4312
     43 H21         1.5666   -3.5223    0.0829 H         1 <0>         0.4386
@<TRIPOS>BOND
     1    1    2 1
     2    1   23 1
     3    1   24 1
     4    1   25 1
     5    2    3 1
     6    2   26 1
     7    2   27 1
     8    3    4 1
     9    3   28 1
    10    3   29 1
    11    4    5 1
    12    4   22 1
    13    4   30 1
    14    5   10 ar
    15    5    6 ar
    16    6    7 ar
    17    6   31 1
    18    7    8 ar
    19    7   32 1
    20    8   13 1
    21    8    9 ar
    22    9   10 ar
    23    9   11 1
    24   10   33 1
    25   11   12 2
    26   11   21 1
    27   12   13 1
    28   12   14 1
    29   14   19 ar
    30   14   15 ar
    31   15   16 ar
    32   15   34 1
    33   16   17 ar
    34   16   35 1
    35   17   18 ar
    36   18   19 ar
    37   18   20 1
    38   20   36 1
    39   20   37 1
    40   21   38 1
    41   21   39 1
    42   21   40 1
    43   22   41 1
    44   22   42 1
    45   22   43 1
@<TRIPOS>MOLECULE
CHEMBL1083967__1
   43    45     0     0     0
SMALL
USER_CHARGES

@<TRIPOS>ATOM
      1 C1         -0.0187    1.5258    0.0104 C.3       1 <0>        -0.1599
      2 C2          0.0021   -0.0041    0.0020 C.3       1 <0>        -0.1378
      3 C3          0.7421   -0.5109    1.2415 C.3       1 <0>        -0.1439
      4 C4          0.7628   -2.0407    1.2331 C.3       1 <0>         0.0863
      5 C5          1.5956   -2.5382    2.3864 C.ar      1 <0>        -0.1498
      6 C6          1.0354   -2.5858    3.6568 C.ar      1 <0>        -0.1091
      7 C7          1.7920   -3.0407    4.7179 C.ar      1 <0>        -0.0506
      8 C8          3.0938   -3.4417    4.5022 C.ar      1 <0>        -0.1069
      9 C9          3.6878   -3.4035    3.2205 C.ar      1 <0>        -0.0773
     10 C10         2.8750   -2.9349    2.1585 C.ar      1 <0>        -0.0323
     11 C11         5.0647   -3.8612    3.1742 C.2       1 <0>        -0.0564
     12 C12         5.6590   -4.2764    4.3191 C.2       1 <0>        -0.1015
     13 S1          4.3819   -4.0731    5.5461 S.3       1 <0>         0.1162
     14 C13         7.0358   -4.7780    4.5057 C.ar      1 <0>         0.2909
     15 C14         7.4835   -5.1724    5.7722 C.ar      1 <0>        -0.2743
     16 C15         8.7801   -5.6351    5.8973 C.ar      1 <0>         0.2090
     17 N1          9.5547   -5.6914    4.8246 N.ar      1 <0>        -0.5647
     18 C16         9.1056   -5.3116    3.6370 C.ar      1 <0>         0.5772
     19 N2          7.8700   -4.8675    3.4699 N.ar      1 <0>        -0.5596
     20 N3          9.9487   -5.3868    2.5419 N.pl3     1 <0>        -0.8162
     21 C17         5.8221   -3.8749    1.8714 C.3       1 <0>        -0.1128
     22 N4         -0.6089   -2.5498    1.3642 N.4       1 <0>        -0.6369
     23 H1          1.0039    1.9031    0.0027 H         1 <0>         0.0647
     24 H2         -0.5459    1.8868   -0.8726 H         1 <0>         0.0672
     25 H3         -0.5289    1.8773    0.9072 H         1 <0>         0.0609
     26 H4         -1.0205   -0.3814    0.0098 H         1 <0>         0.0581
     27 H5          0.5123   -0.3556   -0.8948 H         1 <0>         0.0792
     28 H6          1.7647   -0.1336    1.2338 H         1 <0>         0.1141
     29 H7          0.2319   -0.1594    2.1383 H         1 <0>         0.0917
     30 H8          1.1931   -2.3931    0.2957 H         1 <0>         0.1492
     31 H9          0.0149   -2.2686    3.8132 H         1 <0>         0.1319
     32 H10         1.3677   -3.0819    5.7101 H         1 <0>         0.1458
     33 H11         3.2780   -2.8891    1.1576 H         1 <0>         0.1383
     34 H12         6.8314   -5.1162    6.6313 H         1 <0>         0.1461
     35 H13         9.1577   -5.9471    6.8599 H         1 <0>         0.1779
     36 H14        10.8554   -5.7142    2.6495 H         1 <0>         0.4199
     37 H15         9.6329   -5.1121    1.6669 H         1 <0>         0.4157
     38 H16         6.3293   -2.9196    1.7360 H         1 <0>         0.0778
     39 H17         6.5586   -4.6782    1.8877 H         1 <0>         0.1058
     40 H18         5.1261   -4.0366    1.0482 H         1 <0>         0.0601
     41 H19        -0.5952   -3.5587    1.3587 H         1 <0>         0.4387
     42 H20        -1.0072   -2.2236    2.2320 H         1 <0>         0.4312
     43 H21        -1.1665   -2.2167    0.5920 H         1 <0>         0.4363
@<TRIPOS>BOND
     1    1    2 1
     2    1   23 1
     3    1   24 1
     4    1   25 1
     5    2    3 1
     6    2   26 1
     7    2   27 1
     8    3    4 1
     9    3   28 1
    10    3   29 1
    11    4    5 1
    12    4   22 1
    13    4   30 1
    14    5   10 ar
    15    5    6 ar
    16    6    7 ar
    17    6   31 1
    18    7    8 ar
    19    7   32 1
    20    8   13 1
    21    8    9 ar
    22    9   10 ar
    23    9   11 1
    24   10   33 1
    25   11   12 2
    26   11   21 1
    27   12   13 1
    28   12   14 1
    29   14   19 ar
    30   14   15 ar
    31   15   16 ar
    32   15   34 1
    33   16   17 ar
    34   16   35 1
    35   17   18 ar
    36   18   19 ar
    37   18   20 1
    38   20   36 1
    39   20   37 1
    40   21   38 1
    41   21   39 1
    42   21   40 1
    43   22   41 1
    44   22   42 1
    45   22   43 1
