@<TRIPOS>MOLECULE
ZINC05740655
   40    42     0     0     0
SMALL
USER_CHARGES
6-imino-1-methyl-N-(o-tolyl)-5-phenyl-1,2,4-triazin-3-amine
@<TRIPOS>ATOM
      1 C1         -3.3858    1.5709   -1.2141 C.3       1 <0>        -0.1236
      2 C2         -2.1685    1.3105   -0.3646 C.ar      1 <0>        -0.0932
      3 C3         -1.2628    2.3253   -0.1246 C.ar      1 <0>        -0.0948
      4 C4         -0.1429    2.0857    0.6499 C.ar      1 <0>        -0.1134
      5 C5          0.0746    0.8299    1.1871 C.ar      1 <0>        -0.1010
      6 C6         -0.8267   -0.1891    0.9513 C.ar      1 <0>        -0.1182
      7 C7         -1.9532    0.0482    0.1734 C.ar      1 <0>         0.1290
      8 N1         -2.8674   -0.9811   -0.0677 N.pl3     1 <0>        -0.6010
      9 C8         -2.4246   -2.2980   -0.1606 C.2       1 <0>         0.5334
     10 N2         -3.3307   -3.2722   -0.2647 N.2       1 <0>        -0.4495
     11 C9         -2.9721   -4.5359   -0.3605 C.2       1 <0>         0.2982
     12 C10        -1.5352   -4.8733   -0.3402 C.cat     1 <0>         0.4121
     13 N3         -0.6386   -3.8382   -0.2262 N.pl3     1 <0>        -0.2968
     14 N4         -1.1371   -2.5305   -0.1366 N.2       1 <0>        -0.3040
     15 C11         0.8036   -4.0945   -0.1997 C.3       1 <0>         0.0634
     16 C12        -3.9925   -5.5999   -0.4805 C.ar      1 <0>        -0.0965
     17 C13        -3.7405   -6.7280   -1.2632 C.ar      1 <0>        -0.1161
     18 C14        -4.6946   -7.7189   -1.3669 C.ar      1 <0>        -0.1036
     19 C15        -5.9034   -7.5915   -0.7058 C.ar      1 <0>        -0.0687
     20 C16        -6.1617   -6.4735    0.0675 C.ar      1 <0>        -0.1078
     21 C17        -5.2142   -5.4777    0.1840 C.ar      1 <0>        -0.0452
     22 H1         -4.2079    1.9013   -0.5792 H         1 <0>         0.0792
     23 H2         -3.1585    2.3453   -1.9467 H         1 <0>         0.0803
     24 H3         -3.6711    0.6546   -1.7306 H         1 <0>         0.0626
     25 H4         -1.4294    3.3070   -0.5429 H         1 <0>         0.1354
     26 H5          0.5639    2.8809    0.8358 H         1 <0>         0.1324
     27 H6          0.9507    0.6460    1.7915 H         1 <0>         0.1312
     28 H7         -0.6565   -1.1695    1.3713 H         1 <0>         0.1292
     29 H8         -3.8103   -0.7780   -0.1704 H         1 <0>         0.4375
     30 H9         -0.2009   -6.4221   -0.4210 H         1 <0>         0.4393
     31 H10         1.1276   -4.2411    0.8308 H         1 <0>         0.1163
     32 H11         1.0242   -4.9898   -0.7808 H         1 <0>         0.1086
     33 H12         1.3319   -3.2432   -0.6290 H         1 <0>         0.1313
     34 H13        -2.7991   -6.8264   -1.7834 H         1 <0>         0.1353
     35 H14        -4.4994   -8.5939   -1.9691 H         1 <0>         0.1462
     36 H15        -6.6485   -8.3684   -0.7934 H         1 <0>         0.1438
     37 H16        -7.1071   -6.3803    0.5813 H         1 <0>         0.1457
     38 H17        -5.4168   -4.6057    0.7880 H         1 <0>         0.1428
     39 N5         -1.1865   -6.1588   -0.4326 N.pl3     1 <0>        -0.7588
     40 H18        -1.9102   -6.8824   -0.5154 H         1 <0>         0.4591
@<TRIPOS>BOND
     1    1    2 1
     2    1   22 1
     3    1   23 1
     4    1   24 1
     5    2    7 ar
     6    2    3 ar
     7    3    4 ar
     8    3   25 1
     9    4    5 ar
    10    4   26 1
    11    5    6 ar
    12    5   27 1
    13    6    7 ar
    14    6   28 1
    15    7    8 1
    16    8    9 1
    17    8   29 1
    18    9   14 2
    19    9   10 1
    20   10   11 2
    21   11   12 1
    22   11   16 1
    23   12   13 1
    24   12   39 2
    25   13   14 1
    26   13   15 1
    27   15   31 1
    28   15   32 1
    29   15   33 1
    30   16   21 ar
    31   16   17 ar
    32   17   18 ar
    33   17   34 1
    34   18   19 ar
    35   18   35 1
    36   19   20 ar
    37   19   36 1
    38   20   21 ar
    39   20   37 1
    40   21   38 1
    41   30   39 1
    42   39   40 1
@<TRIPOS>MOLECULE
ZINC37856147
   52    53     0     0     0
SMALL
USER_CHARGES

@<TRIPOS>ATOM
      1 C1         -0.5636    1.8464   -0.4706 C.3       1 <0>        -0.1543
      2 C2         -0.4441    0.3215   -0.4388 C.3       1 <0>         0.0788
      3 O1         -1.7479   -0.2569   -0.3519 O.3       1 <0>        -0.3626
      4 C3         -1.8192   -1.6008   -0.3140 C.2       1 <0>         0.6521
      5 O2         -0.8022   -2.2645   -0.3537 O.2       1 <0>        -0.5551
      6 N1         -3.0187   -2.2100   -0.2322 N.am      1 <0>        -0.6059
      7 C4         -4.2575   -1.4212   -0.1896 C.3       1 <0>         0.1170
      8 C5         -5.0719   -1.8479    1.0357 C.3       1 <0>        -0.1585
      9 C6         -5.2918   -3.3619    0.9950 C.3       1 <0>         0.0236
     10 C7         -3.9395   -4.0769    1.0409 C.3       1 <0>        -0.1580
     11 C8         -3.1126   -3.6756   -0.1900 C.3       1 <0>         0.1314
     12 N2         -6.1008   -3.7702    2.1513 N.4       1 <0>        -0.5043
     13 C9         -6.4129   -5.2020    2.0495 C.3       1 <0>        -0.0487
     14 C10        -7.2378   -5.6318    3.2643 C.3       1 <0>         0.1258
     15 C11        -7.4863   -7.1521    3.1867 C.3       1 <0>        -0.1373
     16 C12        -7.8240   -7.6520    4.5652 C.3       1 <0>        -0.1294
     17 C13        -9.3430   -7.7058    4.8169 C.3       1 <0>        -0.1217
     18 C14       -10.0845   -6.4745    4.2620 C.3       1 <0>        -0.1250
     19 C15        -9.3435   -5.1908    4.5212 C.3       1 <0>        -0.1110
     20 C16        -8.4763   -4.8677    3.2872 C.3       1 <0>        -0.1278
     21 O3         -6.4956   -5.3460    4.4515 O.3       1 <0>        -0.5473
     22 H1          0.4309    2.2876   -0.5369 H         1 <0>         0.0879
     23 H2         -1.1527    2.1467   -1.3372 H         1 <0>         0.0686
     24 H3         -1.0543    2.1915    0.4395 H         1 <0>         0.0671
     25 H4          0.0465   -0.0236   -1.3489 H         1 <0>         0.0728
     26 H5          0.1450    0.0212    0.4278 H         1 <0>         0.0714
     27 H6         -4.0136   -0.3614   -0.1152 H         1 <0>         0.1150
     28 H7         -4.8372   -1.6022   -1.0948 H         1 <0>         0.0859
     29 H8         -4.5293   -1.5834    1.9433 H         1 <0>         0.0947
     30 H9         -6.0362   -1.3399    1.0266 H         1 <0>         0.1049
     31 H10        -5.8126   -3.6286    0.0754 H         1 <0>         0.1440
     32 H11        -3.4076   -3.7914    1.9485 H         1 <0>         0.0954
     33 H12        -4.0979   -5.1554    1.0355 H         1 <0>         0.1034
     34 H13        -3.6009   -4.0367   -1.0952 H         1 <0>         0.0875
     35 H14        -2.1130   -4.1038   -0.1159 H         1 <0>         0.1178
     36 H15        -5.5842   -3.5981    3.0008 H         1 <0>         0.4295
     37 H16        -6.9838   -5.3856    1.1393 H         1 <0>         0.1434
     38 H17        -5.4859   -5.7746    2.0187 H         1 <0>         0.1385
     39 H18        -8.3171   -7.3533    2.5105 H         1 <0>         0.0874
     40 H19        -6.5874   -7.6521    2.8260 H         1 <0>         0.0763
     41 H20        -7.4104   -8.6529    4.6886 H         1 <0>         0.0675
     42 H21        -7.3678   -6.9907    5.3018 H         1 <0>         0.0853
     43 H22        -9.7461   -8.6014    4.3442 H         1 <0>         0.0622
     44 H23        -9.5195   -7.7680    5.8907 H         1 <0>         0.0652
     45 H24       -10.2141   -6.5959    3.1865 H         1 <0>         0.0596
     46 H25       -11.0675   -6.4147    4.7291 H         1 <0>         0.0674
     47 H26       -10.0567   -4.3838    4.6890 H         1 <0>         0.0717
     48 H27        -8.7051   -5.3071    5.3970 H         1 <0>         0.0843
     49 H28        -8.2351   -3.8047    3.2938 H         1 <0>         0.0576
     50 H29        -9.0467   -5.0928    2.3861 H         1 <0>         0.0916
     51 H30        -5.6107   -5.7356    4.4655 H         1 <0>         0.3864
     52 H31        -6.9586   -3.2392    2.1659 H         1 <0>         0.4277
@<TRIPOS>BOND
     1    1    2 1
     2    1   22 1
     3    1   23 1
     4    1   24 1
     5    2    3 1
     6    2   25 1
     7    2   26 1
     8    3    4 1
     9    4    5 2
    10    4    6 am
    11    6   11 1
    12    6    7 1
    13    7    8 1
    14    7   27 1
    15    7   28 1
    16    8    9 1
    17    8   29 1
    18    8   30 1
    19    9   10 1
    20    9   12 1
    21    9   31 1
    22   10   11 1
    23   10   32 1
    24   10   33 1
    25   11   34 1
    26   11   35 1
    27   12   13 1
    28   12   36 1
    29   12   52 1
    30   13   14 1
    31   13   37 1
    32   13   38 1
    33   14   20 1
    34   14   15 1
    35   14   21 1
    36   15   16 1
    37   15   39 1
    38   15   40 1
    39   16   17 1
    40   16   41 1
    41   16   42 1
    42   17   18 1
    43   17   43 1
    44   17   44 1
    45   18   19 1
    46   18   45 1
    47   18   46 1
    48   19   20 1
    49   19   47 1
    50   19   48 1
    51   20   49 1
    52   20   50 1
    53   21   51 1
@<TRIPOS>MOLECULE
ZINC50648828
   38    39     0     0     0
SMALL
USER_CHARGES

@<TRIPOS>ATOM
      1 C1          0.1662    1.7463    0.3271 C.3       1 <0>        -0.1448
      2 C2          0.0451    0.2300    0.1622 C.3       1 <0>        -0.0896
      3 C3          0.6550   -0.1826   -1.1526 C.ar      1 <0>        -0.0927
      4 C4         -0.1432   -0.3236   -2.2711 C.ar      1 <0>        -0.0927
      5 C5          0.4154   -0.7026   -3.4777 C.ar      1 <0>        -0.1199
      6 C6          1.7747   -0.9414   -3.5694 C.ar      1 <0>        -0.0922
      7 C7          2.5785   -0.8019   -2.4553 C.ar      1 <0>        -0.1764
      8 C8          2.0212   -0.4160   -1.2426 C.ar      1 <0>         0.1362
      9 N1          2.8321   -0.2689   -0.1149 N.pl3     1 <0>        -1.0433
     10 S1          4.3736    0.3149   -0.2741 S.o2      1 <0>         2.6985
     11 O1          4.8861    0.4727    1.0419 O.2       1 <0>        -0.9273
     12 O2          5.0157   -0.4945   -1.2497 O.2       1 <0>        -0.9150
     13 C9          4.2498    1.9317   -0.9635 C.ar      1 <0>        -0.7423
     14 C10         4.2572    2.1094   -2.3409 C.ar      1 <0>         0.1166
     15 C11         4.1580    3.3949   -2.8411 C.ar      1 <0>        -0.2036
     16 C12         4.0548    4.4606   -1.9526 C.ar      1 <0>         0.4693
     17 N2          4.0513    4.2500   -0.6454 N.ar      1 <0>        -0.5102
     18 C13         4.1388    3.0340   -0.1402 C.ar      1 <0>         0.2710
     19 N3          3.9550    5.7579   -2.4415 N.pl3     1 <0>        -0.6868
     20 C14         3.9587    5.9984   -3.8866 C.3       1 <0>         0.0654
     21 H1          1.2182    2.0308    0.3093 H         1 <0>         0.0396
     22 H2         -0.3586    2.2435   -0.4888 H         1 <0>         0.0586
     23 H3         -0.2750    2.0447    1.2781 H         1 <0>         0.0661
     24 H4          0.5699   -0.2672    0.9781 H         1 <0>         0.0735
     25 H5         -1.0069   -0.0546    0.1800 H         1 <0>         0.0838
     26 H6         -1.2049   -0.1380   -2.2029 H         1 <0>         0.1312
     27 H7         -0.2110   -0.8129   -4.3505 H         1 <0>         0.1310
     28 H8          2.2078   -1.2377   -4.5133 H         1 <0>         0.1354
     29 H9          3.6397   -0.9888   -2.5276 H         1 <0>         0.1611
     30 H10         4.3389    1.2627   -3.0064 H         1 <0>         0.1877
     31 H11         4.1610    3.5692   -3.9070 H         1 <0>         0.1899
     32 H12         4.1279    2.8999    0.9313 H         1 <0>         0.2241
     33 H13         3.8828    6.5041   -1.8259 H         1 <0>         0.4256
     34 H14         4.8898    5.6267   -4.3144 H         1 <0>         0.0889
     35 H15         3.1162    5.4792   -4.3435 H         1 <0>         0.0885
     36 H16         3.8728    7.0682   -4.0772 H         1 <0>         0.1117
     37 H17         3.9788    5.0079   -0.0444 H         1 <0>         0.4491
     38 H18         2.4924   -0.5086    0.7614 H         1 <0>         0.4339
@<TRIPOS>BOND
     1    1    2 1
     2    1   21 1
     3    1   22 1
     4    1   23 1
     5    2    3 1
     6    2   24 1
     7    2   25 1
     8    3    8 ar
     9    3    4 ar
    10    4    5 ar
    11    4   26 1
    12    5    6 ar
    13    5   27 1
    14    6    7 ar
    15    6   28 1
    16    7    8 ar
    17    7   29 1
    18    8    9 1
    19    9   10 1
    20    9   38 1
    21   10   11 2
    22   10   12 2
    23   10   13 1
    24   13   18 ar
    25   13   14 ar
    26   14   15 ar
    27   14   30 1
    28   15   16 ar
    29   15   31 1
    30   16   17 ar
    31   16   19 1
    32   17   18 ar
    33   17   37 1
    34   18   32 1
    35   19   20 1
    36   19   33 1
    37   20   34 1
    38   20   35 1
    39   20   36 1
@<TRIPOS>MOLECULE
ZINC61406112
   37    39     0     0     0
SMALL
USER_CHARGES

@<TRIPOS>ATOM
      1 C1         -0.0187    1.5258    0.0104 C.3       1 <0>        -0.1729
      2 C2          0.0021   -0.0041    0.0020 C.3       1 <0>        -0.1426
      3 C3          0.7182   -0.4975   -1.2568 C.3       1 <0>         0.0539
      4 H1          0.2444   -0.0644   -2.1377 H         1 <0>         0.1647
      5 C4          0.6303   -2.0233   -1.3286 C.3       1 <0>        -0.0048
      6 H2         -0.4142   -2.3300   -1.2744 H         1 <0>         0.1696
      7 C5          1.3911   -2.6251   -0.1753 C.2       1 <0>        -0.0926
      8 C6          0.8751   -3.4233    0.7765 C.2       1 <0>        -0.1084
      9 C7          1.9344   -3.7536    1.6527 C.2       1 <0>        -0.2032
     10 C8          3.0344   -3.1375    1.1839 C.2       1 <0>        -0.0081
     11 O1          2.7006   -2.4601    0.0732 O.3       1 <0>        -0.2009
     12 S1          1.3487   -2.5974   -2.8922 S.3       1 <0>         0.0046
     13 C9          1.0418   -4.3325   -2.8907 C.2       1 <0>         0.1015
     14 N1          0.4231   -5.0130   -1.9521 N.2       1 <0>        -0.2257
     15 N2          0.3693   -6.2594   -2.2663 N.2       1 <0>        -0.2697
     16 C10         0.9553   -6.4496   -3.4339 C.2       1 <0>         0.2166
     17 N3          1.3970   -5.2168   -3.8660 N.pl3     1 <0>        -0.3697
     18 C11         2.0466   -5.0951   -5.0628 C.2       1 <0>         0.0508
     19 C12         2.2608   -6.1775   -5.8372 C.2       1 <0>        -0.1138
     20 C13         1.8191   -7.4484   -5.4243 C.2       1 <0>        -0.0778
     21 C14         1.1787   -7.5885   -4.2337 C.2       1 <0>        -0.0761
     22 N4          2.1288   -0.0900   -1.2092 N.4       1 <0>        -0.6371
     23 H3          1.0039    1.9031    0.0027 H         1 <0>         0.0535
     24 H4         -0.5459    1.8868   -0.8726 H         1 <0>         0.0763
     25 H5         -0.5289    1.8773    0.9072 H         1 <0>         0.0890
     26 H6          0.5293   -0.3651    0.8851 H         1 <0>         0.0956
     27 H7         -1.0205   -0.3814    0.0098 H         1 <0>         0.1198
     28 H8         -0.1516   -3.7488    0.8565 H         1 <0>         0.1599
     29 H9          1.8722   -4.3801    2.5302 H         1 <0>         0.1609
     30 H10         4.0197   -3.1832    1.6237 H         1 <0>         0.2164
     31 H11         2.3901   -4.1250   -5.3902 H         1 <0>         0.1709
     32 H12         2.7745   -6.0686   -6.7810 H         1 <0>         0.1658
     33 H13         1.9939   -8.3115   -6.0495 H         1 <0>         0.1583
     34 H14         0.8350   -8.5596   -3.9093 H         1 <0>         0.1669
     35 H15         2.1867    0.9163   -1.1619 H         1 <0>         0.4386
     36 H16         2.5674   -0.4909   -0.3938 H         1 <0>         0.4355
     37 H17         2.6010   -0.4153   -2.0394 H         1 <0>         0.4343
@<TRIPOS>BOND
     1    1    2 1
     2    1   23 1
     3    1   24 1
     4    1   25 1
     5    2    3 1
     6    2   26 1
     7    2   27 1
     8    3    4 1
     9    3    5 1
    10    3   22 1
    11    5    6 1
    12    5    7 1
    13    5   12 1
    14    7   11 1
    15    7    8 2
    16    8    9 1
    17    8   28 1
    18    9   10 2
    19    9   29 1
    20   10   11 1
    21   10   30 1
    22   12   13 1
    23   13   17 1
    24   13   14 2
    25   14   15 1
    26   15   16 2
    27   16   21 1
    28   16   17 1
    29   17   18 1
    30   18   19 2
    31   18   31 1
    32   19   20 1
    33   19   32 1
    34   20   21 2
    35   20   33 1
    36   21   34 1
    37   22   35 1
    38   22   36 1
    39   22   37 1
@<TRIPOS>MOLECULE
ZINC63871353
   42    44     0     0     0
SMALL
USER_CHARGES

@<TRIPOS>ATOM
      1 C1         -0.0187    1.5258    0.0104 C.3       1 <0>        -0.1329
      2 C2          0.0021   -0.0041    0.0020 C.3       1 <0>         0.1221
      3 H1          0.5202   -0.3733   -0.8830 H         1 <0>         0.0622
      4 C3         -1.4078   -0.5545    0.0602 C.2       1 <0>        -0.4103
      5 C4         -1.4843   -1.2747    1.1970 C.2       1 <0>         0.2717
      6 N1         -0.3089   -1.2593    1.8766 N.pl3     1 <0>        -0.4460
      7 N2          0.6416   -0.5198    1.2289 N.3       1 <0>        -0.4339
      8 C5         -0.0854   -1.9514    3.1483 C.3       1 <0>         0.0968
      9 C6         -2.7198   -2.0052    1.6563 C.3       1 <0>        -0.1248
     10 C7         -2.4377   -0.3528   -0.8880 C.2       1 <0>         0.6153
     11 O1         -3.5322   -0.8580   -0.7149 O.2       1 <0>        -0.5487
     12 N3         -2.2079    0.3986   -1.9830 N.am      1 <0>        -0.7537
     13 C8         -3.2747    0.6075   -2.9651 C.3       1 <0>         0.1310
     14 C9         -2.7556    1.4901   -4.1020 C.3       1 <0>         0.0729
     15 H2         -2.5302    2.4890   -3.7286 H         1 <0>         0.1857
     16 C10        -3.7803    1.5672   -5.2116 C.2       1 <0>         0.0654
     17 C11        -3.1824    1.0529   -6.3103 C.ar      1 <0>        -0.1581
     18 C12        -3.6422    0.8507   -7.6894 C.ar      1 <0>        -0.0026
     19 C13        -2.7954    0.2987   -8.5893 C.ar      1 <0>        -0.0779
     20 C14        -1.4924   -0.0839   -8.2370 C.ar      1 <0>         0.0599
     21 C15        -0.9994    0.0706   -6.9903 C.ar      1 <0>        -0.1921
     22 C16        -1.8032    0.6407   -5.9646 C.ar      1 <0>         0.3370
     23 N4         -1.5571    0.8914   -4.7000 N.pl3     1 <0>        -0.5764
     24 Cl1        -3.3355    0.0572  -10.2213 Cl        1 <0>        -0.0114
     25 H3          1.0039    1.9031    0.0027 H         1 <0>         0.0642
     26 H4         -0.5459    1.8868   -0.8726 H         1 <0>         0.0518
     27 H5         -0.5289    1.8773    0.9072 H         1 <0>         0.0679
     28 H6          1.4500   -1.0812    1.0068 H         1 <0>         0.3412
     29 H7          0.2760   -2.9612    2.9537 H         1 <0>         0.0672
     30 H8          0.6558   -1.4067    3.7331 H         1 <0>         0.0907
     31 H9         -1.0216   -2.0014    3.7043 H         1 <0>         0.0905
     32 H10        -2.7120   -3.0193    1.2567 H         1 <0>         0.0931
     33 H11        -2.7351   -2.0440    2.7455 H         1 <0>         0.0768
     34 H12        -3.6060   -1.4807    1.2990 H         1 <0>         0.1122
     35 H13        -1.3361    0.8010   -2.1208 H         1 <0>         0.3939
     36 H14        -3.5915   -0.3546   -3.3677 H         1 <0>         0.0923
     37 H15        -4.1215    1.0964   -2.4833 H         1 <0>         0.1165
     38 H16        -4.7861    1.9542   -5.1408 H         1 <0>         0.2186
     39 H17        -4.6415    1.1377   -7.9817 H         1 <0>         0.1757
     40 H18        -0.8581   -0.5201   -8.9945 H         1 <0>         0.1716
     41 H19         0.0112   -0.2403   -6.7701 H         1 <0>         0.1710
     42 H20        -0.7235    0.7112   -4.2378 H         1 <0>         0.4539
@<TRIPOS>BOND
     1    1    2 1
     2    1   25 1
     3    1   26 1
     4    1   27 1
     5    2    3 1
     6    2    7 1
     7    2    4 1
     8    4    5 2
     9    4   10 1
    10    5    6 1
    11    5    9 1
    12    6    7 1
    13    6    8 1
    14    7   28 1
    15    8   29 1
    16    8   30 1
    17    8   31 1
    18    9   32 1
    19    9   33 1
    20    9   34 1
    21   10   11 2
    22   10   12 am
    23   12   13 1
    24   12   35 1
    25   13   14 1
    26   13   36 1
    27   13   37 1
    28   14   15 1
    29   14   23 1
    30   14   16 1
    31   16   17 2
    32   16   38 1
    33   17   22 ar
    34   17   18 ar
    35   18   19 ar
    36   18   39 1
    37   19   20 ar
    38   19   24 1
    39   20   21 ar
    40   20   40 1
    41   21   22 ar
    42   21   41 1
    43   22   23 2
    44   23   42 1
@<TRIPOS>MOLECULE
ZINC12876842
   50    50     0     0     0
SMALL
USER_CHARGES
2-(cycloheptyl-methyl-amino)-N-(isobutylcarbamoyl)acetamide
@<TRIPOS>ATOM
      1 C1          8.1961    8.5834    2.1089 C.3       1 <0>        -0.1516
      2 C2          7.7846    8.1594    3.5202 C.3       1 <0>        -0.1079
      3 C3          8.0974    9.2890    4.5037 C.3       1 <0>        -0.1491
      4 C4          6.2841    7.8616    3.5462 C.3       1 <0>         0.1345
      5 N1          6.0014    6.7029    2.6955 N.am      1 <0>        -0.7252
      6 C5          4.7369    6.2553    2.5648 C.2       1 <0>         0.6910
      7 O1          3.8311    6.8130    3.1527 O.2       1 <0>        -0.5173
      8 N2          4.4769    5.1893    1.7822 N.am      1 <0>        -0.6774
      9 C6          3.2123    4.7417    1.6515 C.2       1 <0>         0.5126
     10 O2          2.3088    5.2980    2.2379 O.2       1 <0>        -0.4544
     11 C7          2.9216    3.5498    0.7765 C.3       1 <0>        -0.0327
     12 C8          0.7174    4.3515    0.1753 C.3       1 <0>        -0.0549
     13 C9          1.1884    1.9766    0.1568 C.3       1 <0>         0.0328
     14 C10         1.8573    1.9437   -1.1906 C.3       1 <0>        -0.1451
     15 C11         0.9546    1.1619   -2.1668 C.3       1 <0>        -0.1128
     16 C12         1.0893   -0.2791   -2.0139 C.3       1 <0>        -0.1323
     17 C13         0.6687   -0.7634   -0.6112 C.3       1 <0>        -0.1275
     18 C14         1.8040   -0.5083    0.3430 C.3       1 <0>        -0.1149
     19 C15         1.6642    0.8379    1.0791 C.3       1 <0>        -0.1422
     20 H1          7.9732    7.7787    1.4083 H         1 <0>         0.0505
     21 H2          7.6431    9.4780    1.8226 H         1 <0>         0.0604
     22 H3          9.2651    8.7956    2.0905 H         1 <0>         0.0641
     23 H4          8.3376    7.2648    3.8066 H         1 <0>         0.0793
     24 H5          7.8043    8.9870    5.5091 H         1 <0>         0.0610
     25 H6          9.1664    9.5012    4.4852 H         1 <0>         0.0663
     26 H7          7.5445   10.1836    4.2173 H         1 <0>         0.0614
     27 H8          5.7354    8.7273    3.1751 H         1 <0>         0.0761
     28 H9          5.9741    7.6460    4.5687 H         1 <0>         0.0758
     29 H10         6.7244    6.2578    2.2263 H         1 <0>         0.4022
     30 H11         5.1998    4.7442    1.3130 H         1 <0>         0.4182
     31 H12         3.4702    2.6841    1.1476 H         1 <0>         0.1641
     32 H13         3.2316    3.7654   -0.2460 H         1 <0>         0.1676
     33 H14        -0.3420    4.0950    0.1691 H         1 <0>         0.1278
     34 H15         0.8652    5.2715    0.7409 H         1 <0>         0.1364
     35 H16         1.0625    4.4951   -0.8486 H         1 <0>         0.1229
     36 H17         0.1107    1.8908    0.0178 H         1 <0>         0.1417
     37 H18         2.8238    1.4466   -1.1077 H         1 <0>         0.0980
     38 H19         1.9961    2.9614   -1.5555 H         1 <0>         0.0848
     39 H20        -0.0838    1.4404   -1.9872 H         1 <0>         0.0697
     40 H21         1.2208    1.4335   -3.1883 H         1 <0>         0.0811
     41 H22         0.4661   -0.7730   -2.7594 H         1 <0>         0.0739
     42 H23         2.1296   -0.5564   -2.1843 H         1 <0>         0.0690
     43 H24        -0.2147   -0.2150   -0.2841 H         1 <0>         0.0660
     44 H25         0.4497   -1.8307   -0.6427 H         1 <0>         0.0779
     45 H26         1.8330   -1.3115    1.0793 H         1 <0>         0.0813
     46 H27         2.7405   -0.5097   -0.2147 H         1 <0>         0.0741
     47 H28         0.9475    0.7212    1.8920 H         1 <0>         0.0906
     48 H29         2.6318    1.1101    1.5007 H         1 <0>         0.0796
     49 N3          1.4727    3.2620    0.8288 N.4       1 <0>        -0.3842
     50 H30         1.1810    3.1965    1.8111 H         1 <0>         0.4367
@<TRIPOS>BOND
     1    1    2 1
     2    1   20 1
     3    1   21 1
     4    1   22 1
     5    2    3 1
     6    2    4 1
     7    2   23 1
     8    3   24 1
     9    3   25 1
    10    3   26 1
    11    4    5 1
    12    4   27 1
    13    4   28 1
    14    5    6 am
    15    5   29 1
    16    6    7 2
    17    6    8 am
    18    8    9 am
    19    8   30 1
    20    9   10 2
    21    9   11 1
    22   11   31 1
    23   11   32 1
    24   11   49 1
    25   12   33 1
    26   12   34 1
    27   12   35 1
    28   12   49 1
    29   13   19 1
    30   13   14 1
    31   13   36 1
    32   13   49 1
    33   14   15 1
    34   14   37 1
    35   14   38 1
    36   15   16 1
    37   15   39 1
    38   15   40 1
    39   16   17 1
    40   16   41 1
    41   16   42 1
    42   17   18 1
    43   17   43 1
    44   17   44 1
    45   18   19 1
    46   18   45 1
    47   18   46 1
    48   19   47 1
    49   19   48 1
    50   49   50 1
@<TRIPOS>MOLECULE
ZINC01793909
   39    40     0     0     0
SMALL
USER_CHARGES

@<TRIPOS>ATOM
      1 C1         -0.0184    1.5028    0.0103 C.3       1 <0>        -0.1348
      2 C2          0.0021   -0.0041    0.0020 C.ar      1 <0>        -0.0078
      3 C3          0.0057   -0.6887   -1.1989 C.ar      1 <0>        -0.1363
      4 C4          0.0245   -2.0709   -1.2065 C.ar      1 <0>        -0.0084
      5 C5          0.0400   -2.7685   -0.0132 C.ar      1 <0>        -0.6977
      6 C6          0.0373   -2.0839    1.1877 C.ar      1 <0>        -0.0252
      7 C7          0.0229   -0.7016    1.1953 C.ar      1 <0>        -0.1374
      8 S1          0.0628   -4.5303   -0.0229 S.o2      1 <0>         2.6802
      9 O1         -0.4759   -4.9503    1.2232 O.2       1 <0>        -0.9234
     10 O2         -0.4897   -4.9367   -1.2674 O.2       1 <0>        -0.9080
     11 N1          1.6509   -4.9994   -0.0343 N.pl3     1 <0>        -0.9281
     12 N2          2.5004   -4.6218    1.0139 N.pl3     1 <0>        -0.4573
     13 C8          3.1953   -5.5755    1.7099 C.cat     1 <0>         0.5294
     14 N3          3.0694   -6.8080    1.3960 N.pl3     1 <0>        -0.5960
     15 C9          3.8051   -7.8468    2.1335 C.3       1 <0>         0.0769
     16 C10         5.2827   -7.7743    1.7445 C.3       1 <0>        -0.1484
     17 C11         6.0189   -6.7679    2.6131 C.3       1 <0>        -0.1395
     18 C12         5.5590   -5.3361    2.3931 C.3       1 <0>        -0.1237
     19 C13         4.1113   -5.1619    2.8409 C.3       1 <0>        -0.1128
     20 H1          1.0042    1.8801    0.0026 H         1 <0>         0.0867
     21 H2         -0.5455    1.8639   -0.8728 H         1 <0>         0.0799
     22 H3         -0.5286    1.8543    0.9071 H         1 <0>         0.0796
     23 H4         -0.0064   -0.1436   -2.1312 H         1 <0>         0.1416
     24 H5          0.0266   -2.6057   -2.1448 H         1 <0>         0.1452
     25 H6          0.0491   -2.6289    2.1200 H         1 <0>         0.1421
     26 H7          0.0245   -0.1667    2.1335 H         1 <0>         0.1410
     27 H8          1.9930   -5.5357   -0.7666 H         1 <0>         0.4360
     28 H9          2.5965   -3.6851    1.2468 H         1 <0>         0.4591
     29 H10         3.7006   -7.6772    3.2052 H         1 <0>         0.1184
     30 H11         3.4073   -8.8285    1.8764 H         1 <0>         0.1284
     31 H12         5.7359   -8.7575    1.8717 H         1 <0>         0.1076
     32 H13         5.3646   -7.4745    0.6998 H         1 <0>         0.0804
     33 H14         5.8629   -7.0287    3.6598 H         1 <0>         0.0812
     34 H15         7.0849   -6.8306    2.3945 H         1 <0>         0.0889
     35 H16         6.1965   -4.6619    2.9652 H         1 <0>         0.1088
     36 H17         5.6378   -5.0920    1.3338 H         1 <0>         0.0776
     37 H18         3.9326   -4.1166    3.0929 H         1 <0>         0.1296
     38 H19         3.9224   -5.7885    3.7125 H         1 <0>         0.1398
     39 H20         2.4835   -7.0607    0.6653 H         1 <0>         0.4264
@<TRIPOS>BOND
     1    1    2 1
     2    1   20 1
     3    1   21 1
     4    1   22 1
     5    2    7 ar
     6    2    3 ar
     7    3    4 ar
     8    3   23 1
     9    4    5 ar
    10    4   24 1
    11    5    6 ar
    12    5    8 1
    13    6    7 ar
    14    6   25 1
    15    7   26 1
    16    8    9 2
    17    8   10 2
    18    8   11 1
    19   11   12 1
    20   11   27 1
    21   12   13 1
    22   12   28 1
    23   13   19 1
    24   13   14 2
    25   14   15 1
    26   14   39 1
    27   15   16 1
    28   15   29 1
    29   15   30 1
    30   16   17 1
    31   16   31 1
    32   16   32 1
    33   17   18 1
    34   17   33 1
    35   17   34 1
    36   18   19 1
    37   18   35 1
    38   18   36 1
    39   19   37 1
    40   19   38 1
@<TRIPOS>MOLECULE
ZINC49631545
   42    44     0     0     0
SMALL
USER_CHARGES

@<TRIPOS>ATOM
      1 C1         -0.0187    1.5243    0.0104 C.3       1 <0>        -0.1211
      2 C2          1.4149    2.0640   -0.0004 C.3       1 <0>        -0.1193
      3 C3          2.0619    1.7573    1.3582 C.3       1 <0>        -0.0371
      4 C4          1.7863    0.3286    1.7028 C.2       1 <0>        -0.1801
      5 C5          0.8931   -0.4951    1.1412 C.2       1 <0>         0.0806
      6 N1          0.8191   -1.7818    1.6312 N.pl3     1 <0>        -0.6466
      7 C6          1.6465   -2.1686    2.6578 C.2       1 <0>         0.4739
      8 S1          2.5671   -0.6647    2.9485 S.3       1 <0>         0.1672
      9 N2          1.7361   -3.3280    3.2615 N.2       1 <0>        -0.9554
     10 S2          0.7560   -4.5802    2.7992 S.o2      1 <0>         2.5141
     11 O1         -0.5611   -4.1400    3.1004 O.2       1 <0>        -0.9841
     12 O2          1.1367   -4.8631    1.4597 O.2       1 <0>        -0.9537
     13 C7          1.2175   -5.9587    3.8843 C.3       1 <0>        -0.6259
     14 C8          0.3663   -7.1834    3.5432 C.3       1 <0>         0.0391
     15 H1          0.5366   -7.4657    2.5043 H         1 <0>         0.1554
     16 C9          0.7571   -8.3462    4.4578 C.3       1 <0>        -0.1319
     17 C10        -0.0971   -9.5694    4.1126 C.3       1 <0>        -0.1415
     18 C11        -1.5774   -9.1997    4.2443 C.3       1 <0>        -0.1490
     19 C12        -1.8817   -8.0052    3.3376 C.3       1 <0>        -0.0109
     20 N3         -1.0528   -6.8611    3.7357 N.4       1 <0>        -0.5198
     21 C13         0.0021   -0.0041    0.0020 C.3       1 <0>        -0.0607
     22 H2         -0.5308    1.8746    0.9065 H         1 <0>         0.0751
     23 H3         -0.5478    1.8842   -0.8719 H         1 <0>         0.0861
     24 H4          1.9828    1.5789   -0.7942 H         1 <0>         0.0748
     25 H5          1.3992    3.1416   -0.1635 H         1 <0>         0.0871
     26 H6          3.1382    1.9179    1.2959 H         1 <0>         0.0941
     27 H7          1.6352    2.4072    2.1222 H         1 <0>         0.0950
     28 H8          2.2713   -6.1972    3.7405 H         1 <0>         0.1871
     29 H9          1.0475   -5.6759    4.9232 H         1 <0>         0.1645
     30 H10         1.8106   -8.5853    4.3127 H         1 <0>         0.1197
     31 H11         0.5869   -8.0650    5.4971 H         1 <0>         0.0969
     32 H12         0.1108   -9.8822    3.0894 H         1 <0>         0.0864
     33 H13         0.1377  -10.3833    4.7986 H         1 <0>         0.1021
     34 H14        -2.1925  -10.0488    3.9465 H         1 <0>         0.1183
     35 H15        -1.7961   -8.9361    5.2791 H         1 <0>         0.0922
     36 H16        -1.6630   -8.2699    2.3031 H         1 <0>         0.1348
     37 H17        -2.9349   -7.7394    3.4288 H         1 <0>         0.1420
     38 H18        -1.2194   -6.6479    4.7077 H         1 <0>         0.4332
     39 H19        -1.0103   -0.3834    0.1413 H         1 <0>         0.0877
     40 H20         0.3983   -0.3583   -0.9496 H         1 <0>         0.0967
     41 H21        -1.2942   -6.0602    3.1716 H         1 <0>         0.4232
     42 H22         0.1854   -2.4113    1.2530 H         1 <0>         0.4099
@<TRIPOS>BOND
     1    1   21 1
     2    1    2 1
     3    1   22 1
     4    1   23 1
     5    2    3 1
     6    2   24 1
     7    2   25 1
     8    3    4 1
     9    3   26 1
    10    3   27 1
    11    4    8 1
    12    4    5 2
    13    5    6 1
    14    5   21 1
    15    6    7 1
    16    6   42 1
    17    7    8 1
    18    7    9 2
    19    9   10 1
    20   10   11 2
    21   10   12 2
    22   10   13 1
    23   13   14 1
    24   13   28 1
    25   13   29 1
    26   14   15 1
    27   14   20 1
    28   14   16 1
    29   16   17 1
    30   16   30 1
    31   16   31 1
    32   17   18 1
    33   17   32 1
    34   17   33 1
    35   18   19 1
    36   18   34 1
    37   18   35 1
    38   19   20 1
    39   19   36 1
    40   19   37 1
    41   20   38 1
    42   20   41 1
    43   21   39 1
    44   21   40 1
@<TRIPOS>MOLECULE
ZINC51813946
   36    37     0     0     0
SMALL
USER_CHARGES

@<TRIPOS>ATOM
      1 C1         -0.0167    1.3792    0.0096 C.ar      1 <0>        -0.0964
      2 C2          1.1683    2.0931    0.0021 C.ar      1 <0>        -0.1194
      3 C3          2.3774    1.4286   -0.0130 C.ar      1 <0>        -0.0843
      4 C4          2.4032    0.0335   -0.0208 C.ar      1 <0>        -0.0153
      5 C5          1.2045   -0.6806   -0.0131 C.ar      1 <0>        -0.0862
      6 C6          0.0021   -0.0041    0.0020 C.ar      1 <0>        -0.1198
      7 C7          3.6547   -0.6624   -0.0369 C.1       1 <0>        -0.0423
      8 C8          4.6806   -1.2329   -0.0502 C.1       1 <0>        -0.2125
      9 C9          5.9670   -1.9483   -0.0668 C.3       1 <0>         0.1845
     10 O1          5.7285   -3.3572   -0.0720 O.3       1 <0>        -0.2677
     11 C10         6.8194   -4.1676   -0.0872 C.ar      1 <0>         0.2069
     12 C11         8.0934   -3.6179   -0.0912 C.ar      1 <0>        -0.1951
     13 C12         9.2005   -4.4437   -0.1061 C.ar      1 <0>        -0.0803
     14 C13         9.0400   -5.8172   -0.1172 C.ar      1 <0>        -0.1337
     15 C14         7.7717   -6.3673   -0.1138 C.ar      1 <0>        -0.0091
     16 C15         6.6611   -5.5456   -0.0931 C.ar      1 <0>        -0.0563
     17 N1          5.3036   -6.1353   -0.0832 N.pl3     1 <0>         0.0252
     18 O2          5.1662   -7.3364   -0.0883 O.2       1 <0>        -0.1515
     19 O3          4.3321   -5.4158   -0.0701 O.3       1 <0>        -0.1132
     20 C16        10.5845   -3.8474   -0.1109 C.3       1 <0>         0.0427
     21 N2         11.0440   -3.6655    1.2725 N.4       1 <0>        -0.6365
     22 H1         -0.9605    1.9041    0.0260 H         1 <0>         0.1314
     23 H2          1.1469    3.1729    0.0078 H         1 <0>         0.1331
     24 H3          3.3018    1.9871   -0.0192 H         1 <0>         0.1286
     25 H4          1.2178   -1.7605   -0.0194 H         1 <0>         0.1279
     26 H5         -0.9265   -0.5556    0.0079 H         1 <0>         0.1328
     27 H6          6.5254   -1.6710   -0.9609 H         1 <0>         0.0969
     28 H7          6.5431   -1.6806    0.8189 H         1 <0>         0.0941
     29 H8          8.2192   -2.5453   -0.0828 H         1 <0>         0.1613
     30 H9          9.9069   -6.4612   -0.1289 H         1 <0>         0.1591
     31 H10         7.6489   -7.4402   -0.1229 H         1 <0>         0.1735
     32 H11        11.2666   -4.5165   -0.6354 H         1 <0>         0.1527
     33 H12        10.5624   -2.8819   -0.6163 H         1 <0>         0.1494
     34 H13        10.4126   -3.0461    1.7580 H         1 <0>         0.4367
     35 H14        11.0645   -4.5593    1.7403 H         1 <0>         0.4383
     36 H15        11.9707   -3.2663    1.2693 H         1 <0>         0.4441
@<TRIPOS>BOND
     1    1    6 ar
     2    1    2 ar
     3    1   22 1
     4    2    3 ar
     5    2   23 1
     6    3    4 ar
     7    3   24 1
     8    4    5 ar
     9    4    7 1
    10    5    6 ar
    11    5   25 1
    12    6   26 1
    13    7    8 3
    14    8    9 1
    15    9   10 1
    16    9   27 1
    17    9   28 1
    18   10   11 1
    19   11   16 ar
    20   11   12 ar
    21   12   13 ar
    22   12   29 1
    23   13   14 ar
    24   13   20 1
    25   14   15 ar
    26   14   30 1
    27   15   16 ar
    28   15   31 1
    29   16   17 1
    30   17   18 2
    31   17   19 1
    32   20   21 1
    33   20   32 1
    34   20   33 1
    35   21   34 1
    36   21   35 1
    37   21   36 1
@<TRIPOS>MOLECULE
ZINC62239991
   41    43     0     0     0
SMALL
USER_CHARGES

@<TRIPOS>ATOM
      1 C1         -0.0184    1.5028    0.0103 C.3       1 <0>        -0.1211
      2 C2          0.0021   -0.0041    0.0020 C.ar      1 <0>        -0.1011
      3 C3          0.0057   -0.6876   -1.1998 C.ar      1 <0>        -0.0796
      4 C4          0.0240   -2.0689   -1.2101 C.ar      1 <0>        -0.1374
      5 C5          0.0391   -2.7702   -0.0132 C.ar      1 <0>         0.0980
      6 C6          0.0359   -2.0820    1.1914 C.ar      1 <0>        -0.1973
      7 C7          0.0229   -0.7006    1.1962 C.ar      1 <0>        -0.0790
      8 O1          0.0567   -4.1291   -0.0207 O.3       1 <0>        -0.3204
      9 C8          0.0716   -4.7847    1.2490 C.3       1 <0>         0.1132
     10 C9          0.0899   -6.2775    1.0433 C.2       1 <0>         0.0255
     11 C10        -0.9817   -7.0972    0.9323 C.2       1 <0>        -0.0770
     12 N1         -0.4994   -8.3331    0.7603 N.2       1 <0>        -0.2292
     13 N2          0.7858   -8.2867    0.7640 N.2       1 <0>        -0.0297
     14 N3          1.1871   -7.0743    0.9256 N.pl3     1 <0>        -0.2114
     15 C11         2.5226   -6.6488    0.9746 C.ar      1 <0>         0.1144
     16 C12         2.8783   -5.4128    0.4514 C.ar      1 <0>        -0.1200
     17 C13         4.1938   -4.9952    0.5004 C.ar      1 <0>        -0.0673
     18 C14         5.1578   -5.8063    1.0700 C.ar      1 <0>        -0.1217
     19 C15         4.8072   -7.0397    1.5930 C.ar      1 <0>         0.1275
     20 C16         3.4895   -7.4600    1.5513 C.ar      1 <0>        -0.1237
     21 F1          5.7511   -7.8307    2.1487 F         1 <0>        -0.1180
     22 C17        -2.4331   -6.6963    0.9916 C.3       1 <0>         0.0979
     23 N4         -2.9082   -6.3756   -0.3610 N.4       1 <0>        -0.6362
     24 H1          1.0042    1.8801    0.0026 H         1 <0>         0.0758
     25 H2         -0.5455    1.8639   -0.8728 H         1 <0>         0.0709
     26 H3         -0.5286    1.8543    0.9071 H         1 <0>         0.0702
     27 H4         -0.0061   -0.1412   -2.1314 H         1 <0>         0.1357
     28 H5          0.0261   -2.6024   -2.1492 H         1 <0>         0.1324
     29 H6          0.0477   -2.6256    2.1245 H         1 <0>         0.1279
     30 H7          0.0248   -0.1643    2.1337 H         1 <0>         0.1312
     31 H8          0.9606   -4.4833    1.8030 H         1 <0>         0.0966
     32 H9         -0.8192   -4.5064    1.8121 H         1 <0>         0.1036
     33 H10         2.1264   -4.7783    0.0058 H         1 <0>         0.1502
     34 H11         4.4700   -4.0339    0.0929 H         1 <0>         0.1559
     35 H12         6.1859   -5.4776    1.1068 H         1 <0>         0.1566
     36 H13         3.2147   -8.4197    1.9634 H         1 <0>         0.1558
     37 H14        -3.0212   -7.5194    1.3976 H         1 <0>         0.1594
     38 H15        -2.5425   -5.8211    1.6320 H         1 <0>         0.1500
     39 H16        -2.3639   -5.6137   -0.7369 H         1 <0>         0.4368
     40 H17        -2.8070   -7.1858   -0.9539 H         1 <0>         0.4408
     41 H18        -3.8801   -6.1072   -0.3213 H         1 <0>         0.4438
@<TRIPOS>BOND
     1    1    2 1
     2    1   24 1
     3    1   25 1
     4    1   26 1
     5    2    7 ar
     6    2    3 ar
     7    3    4 ar
     8    3   27 1
     9    4    5 ar
    10    4   28 1
    11    5    6 ar
    12    5    8 1
    13    6    7 ar
    14    6   29 1
    15    7   30 1
    16    8    9 1
    17    9   10 1
    18    9   31 1
    19    9   32 1
    20   10   14 1
    21   10   11 2
    22   11   12 1
    23   11   22 1
    24   12   13 2
    25   13   14 1
    26   14   15 1
    27   15   20 ar
    28   15   16 ar
    29   16   17 ar
    30   16   33 1
    31   17   18 ar
    32   17   34 1
    33   18   19 ar
    34   18   35 1
    35   19   20 ar
    36   19   21 1
    37   20   36 1
    38   22   23 1
    39   22   37 1
    40   22   38 1
    41   23   39 1
    42   23   40 1
    43   23   41 1
@<TRIPOS>MOLECULE
ZINC00034496
   47    49     0     0     0
SMALL
USER_CHARGES
4-(6,7-diethoxy-1,2,3,4-tetrahydroisoquinolin-1-yl)phenol
@<TRIPOS>ATOM
      1 C1         -4.7962    0.0462    0.0507 C.3       1 <0>        -0.1561
      2 C2         -3.5655   -0.8626    0.0326 C.3       1 <0>         0.0517
      3 O1         -2.3820   -0.0617    0.0257 O.3       1 <0>        -0.2951
      4 C3         -1.1917   -0.7192    0.0096 C.ar      1 <0>         0.1368
      5 C4         -1.1616   -2.1026    0.0002 C.ar      1 <0>        -0.1698
      6 C5          0.0497   -2.7777   -0.0170 C.ar      1 <0>        -0.0832
      7 C6          1.2330   -2.0696   -0.0209 C.ar      1 <0>        -0.1260
      8 C7          1.2077   -0.6824   -0.0189 C.ar      1 <0>        -0.1463
      9 C8          0.0021   -0.0041    0.0020 C.ar      1 <0>         0.1195
     10 O2         -0.0164    1.3557    0.0095 O.3       1 <0>        -0.2951
     11 C9          1.2479    2.0217    0.0010 C.3       1 <0>         0.0534
     12 C10         1.0269    3.5357    0.0112 C.3       1 <0>        -0.1558
     13 C11         2.5720   -2.7600   -0.0320 C.3       1 <0>         0.1471
     14 H1          3.0003   -2.7304    0.9699 H         1 <0>         0.1510
     15 C12         1.4021   -4.8305    0.3593 C.3       1 <0>         0.0014
     16 C13         0.0301   -4.2849   -0.0373 C.3       1 <0>        -0.1036
     17 C14         3.4923   -2.0453   -0.9877 C.ar      1 <0>        -0.1532
     18 C15         3.3984   -2.2856   -2.3460 C.ar      1 <0>        -0.0959
     19 C16         4.2371   -1.6274   -3.2246 C.ar      1 <0>        -0.1328
     20 C17         5.1819   -0.7336   -2.7419 C.ar      1 <0>         0.1422
     21 C18         5.2779   -0.4985   -1.3780 C.ar      1 <0>        -0.1352
     22 C19         4.4328   -1.1546   -0.5041 C.ar      1 <0>        -0.0736
     23 O3          6.0125   -0.0897   -3.6037 O.3       1 <0>        -0.4937
     24 H2         -4.7743    0.6698    0.9444 H         1 <0>         0.0704
     25 H3         -4.7922    0.6809   -0.8354 H         1 <0>         0.0701
     26 H4         -5.6989   -0.5647    0.0560 H         1 <0>         0.0845
     27 H5         -3.5874   -1.4862   -0.8611 H         1 <0>         0.0653
     28 H6         -3.5695   -1.4973    0.9187 H         1 <0>         0.0659
     29 H7         -2.0867   -2.6597    0.0058 H         1 <0>         0.1462
     30 H8          2.1349   -0.1287   -0.0294 H         1 <0>         0.1440
     31 H9          1.8173    1.7317    0.8840 H         1 <0>         0.0633
     32 H10         1.8003    1.7413   -0.8958 H         1 <0>         0.0627
     33 H11         1.9913    4.0437    0.0048 H         1 <0>         0.0837
     34 H12         0.4575    3.8257   -0.8718 H         1 <0>         0.0704
     35 H13         0.4745    3.8162    0.9081 H         1 <0>         0.0708
     36 H14         1.4363   -5.9043    0.1752 H         1 <0>         0.1420
     37 H15         1.5863   -4.6341    1.4155 H         1 <0>         0.1356
     38 H16        -0.7202   -4.6465    0.6660 H         1 <0>         0.1231
     39 H17        -0.2204   -4.6300   -1.0404 H         1 <0>         0.1033
     40 H18         2.6661   -2.9853   -2.7209 H         1 <0>         0.1241
     41 H19         4.1607   -1.8124   -4.2859 H         1 <0>         0.1424
     42 H20         6.0129    0.1966   -0.9998 H         1 <0>         0.1443
     43 H21         4.5071   -0.9720    0.5577 H         1 <0>         0.1393
     44 H22         6.8379   -0.5613   -3.7808 H         1 <0>         0.4046
     45 N1          2.4288   -4.1587   -0.4588 N.4       1 <0>        -0.5128
     46 H23         3.3266   -4.6434   -0.3437 H         1 <0>         0.4394
     47 H24         2.1491   -4.1864   -1.4463 H         1 <0>         0.4300
@<TRIPOS>BOND
     1    1    2 1
     2    1   24 1
     3    1   25 1
     4    1   26 1
     5    2    3 1
     6    2   27 1
     7    2   28 1
     8    3    4 1
     9    4    9 ar
    10    4    5 ar
    11    5    6 ar
    12    5   29 1
    13    6   16 1
    14    6    7 ar
    15    7    8 ar
    16    7   13 1
    17    8    9 ar
    18    8   30 1
    19    9   10 1
    20   10   11 1
    21   11   12 1
    22   11   31 1
    23   11   32 1
    24   12   33 1
    25   12   34 1
    26   12   35 1
    27   13   14 1
    28   13   17 1
    29   13   45 1
    30   15   16 1
    31   15   36 1
    32   15   37 1
    33   15   45 1
    34   16   38 1
    35   16   39 1
    36   17   22 ar
    37   17   18 ar
    38   18   19 ar
    39   18   40 1
    40   19   20 ar
    41   19   41 1
    42   20   21 ar
    43   20   23 1
    44   21   22 ar
    45   21   42 1
    46   22   43 1
    47   23   44 1
    48   45   46 1
    49   45   47 1
@<TRIPOS>MOLECULE
ZINC36322085
   38    40     0     0     0
SMALL
USER_CHARGES

@<TRIPOS>ATOM
      1 C1         -0.5255    0.5699    2.4943 C.3       1 <0>         0.0214
      2 O1         -0.3366   -0.5737    1.6586 O.3       1 <0>        -0.3007
      3 C2         -1.3713   -0.9255    0.8514 C.ar      1 <0>         0.1680
      4 C3         -2.5415   -0.1837    0.8580 C.ar      1 <0>        -0.2061
      5 C4         -3.5932   -0.5423    0.0361 C.ar      1 <0>        -0.0518
      6 C5         -3.4849   -1.6421   -0.7965 C.ar      1 <0>        -0.1534
      7 C6         -2.3249   -2.3901   -0.8126 C.ar      1 <0>        -0.0701
      8 C7         -1.2568   -2.0337    0.0072 C.ar      1 <0>        -0.0965
      9 C8         -0.0054   -2.8306   -0.0108 C.2       1 <0>         0.1994
     10 C9          0.0772   -4.1881    0.0702 C.2       1 <0>        -0.1692
     11 N1          1.4042   -4.5133    0.0184 N.pl3     1 <0>        -0.3523
     12 C10         2.0604   -5.7098    0.0577 C.2       1 <0>         0.1027
     13 C11         3.4072   -5.7580   -0.0131 C.2       1 <0>        -0.1777
     14 C12         4.1537   -4.5736   -0.1284 C.2       1 <0>        -0.0594
     15 C13         3.5130   -3.3745   -0.1686 C.2       1 <0>        -0.0630
     16 C14         2.1054   -3.3402   -0.0937 C.2       1 <0>         0.2764
     17 N2          1.2389   -2.3381   -0.1155 N.2       1 <0>        -0.4512
     18 C15         4.1136   -7.0884    0.0323 C.3       1 <0>         0.5221
     19 F1          4.3618   -7.5294   -1.2719 F         1 <0>        -0.1627
     20 F2          5.3261   -6.9495    0.7163 F         1 <0>        -0.1607
     21 F3          3.3087   -8.0214    0.6948 F         1 <0>        -0.1751
     22 C16        -1.0763   -5.1499    0.1941 C.3       1 <0>         0.0897
     23 N3         -1.4550   -5.2809    1.6074 N.4       1 <0>        -0.6389
     24 H1          0.3740    0.7403    3.0858 H         1 <0>         0.1069
     25 H2         -0.7237    1.4443    1.8743 H         1 <0>         0.0633
     26 H3         -1.3710    0.3976    3.1603 H         1 <0>         0.0594
     27 H4         -2.6321    0.6753    1.5063 H         1 <0>         0.1397
     28 H5         -4.5038    0.0384    0.0441 H         1 <0>         0.1364
     29 H6         -4.3110   -1.9165   -1.4358 H         1 <0>         0.1365
     30 H7         -2.2440   -3.2481   -1.4635 H         1 <0>         0.1327
     31 H8          1.4964   -6.6265    0.1465 H         1 <0>         0.1801
     32 H9          5.2314   -4.6150   -0.1844 H         1 <0>         0.1673
     33 H10         4.0769   -2.4576   -0.2568 H         1 <0>         0.1763
     34 H11        -1.9257   -4.7739   -0.3762 H         1 <0>         0.1575
     35 H12        -0.7804   -6.1242   -0.1946 H         1 <0>         0.1411
     36 H13        -1.7289   -4.3790    1.9673 H         1 <0>         0.4383
     37 H14        -2.2273   -5.9249    1.6904 H         1 <0>         0.4412
     38 H15        -0.6687   -5.6290    2.1354 H         1 <0>         0.4324
@<TRIPOS>BOND
     1    1    2 1
     2    1   24 1
     3    1   25 1
     4    1   26 1
     5    2    3 1
     6    3    8 ar
     7    3    4 ar
     8    4    5 ar
     9    4   27 1
    10    5    6 ar
    11    5   28 1
    12    6    7 ar
    13    6   29 1
    14    7    8 ar
    15    7   30 1
    16    8    9 1
    17    9   17 1
    18    9   10 2
    19   10   11 1
    20   10   22 1
    21   11   16 1
    22   11   12 1
    23   12   13 2
    24   12   31 1
    25   13   14 1
    26   13   18 1
    27   14   15 2
    28   14   32 1
    29   15   16 1
    30   15   33 1
    31   16   17 2
    32   18   19 1
    33   18   20 1
    34   18   21 1
    35   22   23 1
    36   22   34 1
    37   22   35 1
    38   23   36 1
    39   23   37 1
    40   23   38 1
@<TRIPOS>MOLECULE
ZINC41152412
   32    33     0     0     0
SMALL
USER_CHARGES

@<TRIPOS>ATOM
      1 C1         -0.0187    1.5258    0.0104 C.3       1 <0>        -0.1744
      2 C2          0.0021   -0.0041    0.0020 C.3       1 <0>        -0.1441
      3 C3         -1.4333   -0.5336    0.0129 C.3       1 <0>         0.1690
      4 C4         -2.1494   -0.0402    1.2717 C.3       1 <0>        -0.1775
      5 C5         -1.4129   -2.0405    0.0046 C.2       1 <0>         0.2026
      6 N1         -2.4860   -2.8286   -0.0895 N.2       1 <0>        -0.5513
      7 C6         -2.1197   -4.0906   -0.0675 C.2       1 <0>         0.3807
      8 O1         -0.7805   -4.1326    0.0431 O.3       1 <0>        -0.0700
      9 N2         -0.3444   -2.7821    0.0825 N.2       1 <0>        -0.2881
     10 C7         -3.0216   -5.2585   -0.1499 C.ar      1 <0>        -0.0635
     11 C8         -4.4000   -5.0724   -0.2686 C.ar      1 <0>        -0.0404
     12 C9         -5.2366   -6.1663   -0.3450 C.ar      1 <0>        -0.0982
     13 C10        -4.7118   -7.4470   -0.3038 C.ar      1 <0>        -0.0475
     14 C11        -3.3455   -7.6380   -0.1857 C.ar      1 <0>        -0.0940
     15 C12        -2.4981   -6.5521   -0.1151 C.ar      1 <0>        -0.0535
     16 Br1        -5.8659   -8.9413   -0.4085 Br        1 <0>        -0.0142
     17 N3         -2.1438   -0.0470   -1.1772 N.4       1 <0>        -0.6291
     18 H1          1.0039    1.9031    0.0027 H         1 <0>         0.0935
     19 H2         -0.5459    1.8868   -0.8726 H         1 <0>         0.0558
     20 H3         -0.5289    1.8773    0.9072 H         1 <0>         0.0805
     21 H4          0.5123   -0.3556   -0.8948 H         1 <0>         0.0980
     22 H5          0.5293   -0.3651    0.8851 H         1 <0>         0.1211
     23 H6         -2.1642    1.0497    1.2777 H         1 <0>         0.1055
     24 H7         -3.1720   -0.4175    1.2794 H         1 <0>         0.0971
     25 H8         -1.6223   -0.4013    2.1547 H         1 <0>         0.1113
     26 H9         -4.8106   -4.0740   -0.3002 H         1 <0>         0.1505
     27 H10        -6.3032   -6.0237   -0.4369 H         1 <0>         0.1521
     28 H11        -2.9421   -8.6393   -0.1533 H         1 <0>         0.1531
     29 H12        -1.4321   -6.7023   -0.0283 H         1 <0>         0.1497
     30 H13        -1.6715   -0.3724   -2.0074 H         1 <0>         0.4377
     31 H14        -3.0904   -0.3963   -1.1701 H         1 <0>         0.4440
     32 H15        -2.1575    0.9619   -1.1717 H         1 <0>         0.4436
@<TRIPOS>BOND
     1    1    2 1
     2    1   18 1
     3    1   19 1
     4    1   20 1
     5    2    3 1
     6    2   21 1
     7    2   22 1
     8    3    4 1
     9    3    5 1
    10    3   17 1
    11    4   23 1
    12    4   24 1
    13    4   25 1
    14    5    9 2
    15    5    6 1
    16    6    7 2
    17    7    8 1
    18    7   10 1
    19    8    9 1
    20   10   15 ar
    21   10   11 ar
    22   11   12 ar
    23   11   26 1
    24   12   13 ar
    25   12   27 1
    26   13   14 ar
    27   13   16 1
    28   14   15 ar
    29   14   28 1
    30   15   29 1
    31   17   30 1
    32   17   31 1
    33   17   32 1
@<TRIPOS>MOLECULE
ZINC57762273
   44    46     0     0     0
SMALL
USER_CHARGES

@<TRIPOS>ATOM
      1 C1         -0.0184    1.5028    0.0103 C.3       1 <0>        -0.1171
      2 C2          0.0021   -0.0041    0.0020 C.ar      1 <0>        -0.1148
      3 C3          0.0057   -0.6877   -1.2000 C.ar      1 <0>        -0.0732
      4 C4          0.0240   -2.0688   -1.2103 C.ar      1 <0>        -0.1972
      5 C5          0.0391   -2.7702   -0.0132 C.ar      1 <0>         0.1289
      6 C6          0.0359   -2.0821    1.1912 C.ar      1 <0>        -0.1340
      7 C7          0.0229   -0.7005    1.1961 C.ar      1 <0>        -0.0901
      8 C8          0.0523   -2.8407    2.4932 C.3       1 <0>        -0.0568
      9 C9          1.4959   -3.1871    2.8635 C.3       1 <0>        -0.0520
     10 H1          1.9626   -3.7272    2.0399 H         1 <0>         0.1072
     11 C10         2.2756   -1.8991    3.1356 C.3       1 <0>        -0.0111
     12 N1          3.6885   -2.2231    3.3737 N.4       1 <0>        -0.6369
     13 C11         1.5043   -4.0499    4.0990 C.ar      1 <0>        -0.1223
     14 C12         0.9564   -3.5747    5.2760 C.ar      1 <0>        -0.1018
     15 C13         0.9614   -4.3626    6.4118 C.ar      1 <0>        -0.0957
     16 C14         1.5164   -5.6315    6.3730 C.ar      1 <0>         0.0518
     17 C15         2.0683   -6.1102    5.1874 C.ar      1 <0>         0.0417
     18 C16         2.0547   -5.3171    4.0515 C.ar      1 <0>        -0.0966
     19 O1          2.5447   -7.3706    5.4057 O.3       1 <0>        -0.3031
     20 C17         2.6465   -7.5008    6.8360 C.3       1 <0>         0.2117
     21 O2          1.6469   -6.5920    7.3341 O.3       1 <0>        -0.3013
     22 O3          0.0567   -4.1291   -0.0207 O.3       1 <0>        -0.3155
     23 C18         0.0584   -4.7708   -1.2975 C.3       1 <0>         0.0237
     24 H2          1.0042    1.8801    0.0026 H         1 <0>         0.0699
     25 H3         -0.5455    1.8639   -0.8728 H         1 <0>         0.0702
     26 H4         -0.5286    1.8543    0.9071 H         1 <0>         0.0683
     27 H5         -0.0061   -0.1413   -2.1315 H         1 <0>         0.1292
     28 H6          0.0261   -2.6023   -2.1493 H         1 <0>         0.1326
     29 H7          0.0245   -0.1642    2.1335 H         1 <0>         0.1295
     30 H8         -0.3863   -2.2247    3.2782 H         1 <0>         0.0854
     31 H9         -0.5256   -3.7587    2.3862 H         1 <0>         0.0987
     32 H10         2.1950   -1.2366    2.2739 H         1 <0>         0.1419
     33 H11         1.8634   -1.4036    4.0147 H         1 <0>         0.1380
     34 H12         3.7632   -2.8364    4.1715 H         1 <0>         0.4335
     35 H13         4.0701   -2.6818    2.5600 H         1 <0>         0.4350
     36 H14         0.5240   -2.5856    5.3083 H         1 <0>         0.1426
     37 H15         0.5327   -3.9889    7.3299 H         1 <0>         0.1445
     38 H16         2.4780   -5.6875    3.1295 H         1 <0>         0.1399
     39 H17         2.4233   -8.5222    7.1445 H         1 <0>         0.1412
     40 H18         3.6381   -7.2045    7.1780 H         1 <0>         0.0929
     41 H19        -0.8381   -4.4865   -1.8483 H         1 <0>         0.0601
     42 H20         0.9417   -4.4635   -1.8574 H         1 <0>         0.0577
     43 H21         0.0731   -5.8521   -1.1606 H         1 <0>         0.1050
     44 H22         4.2028   -1.3737    3.5532 H         1 <0>         0.4383
@<TRIPOS>BOND
     1    1    2 1
     2    1   24 1
     3    1   25 1
     4    1   26 1
     5    2    7 ar
     6    2    3 ar
     7    3    4 ar
     8    3   27 1
     9    4    5 ar
    10    4   28 1
    11    5    6 ar
    12    5   22 1
    13    6    7 ar
    14    6    8 1
    15    7   29 1
    16    8    9 1
    17    8   30 1
    18    8   31 1
    19    9   10 1
    20    9   11 1
    21    9   13 1
    22   11   12 1
    23   11   32 1
    24   11   33 1
    25   12   34 1
    26   12   35 1
    27   12   44 1
    28   13   18 ar
    29   13   14 ar
    30   14   15 ar
    31   14   36 1
    32   15   16 ar
    33   15   37 1
    34   16   21 1
    35   16   17 ar
    36   17   18 ar
    37   17   19 1
    38   18   38 1
    39   19   20 1
    40   20   21 1
    41   20   39 1
    42   20   40 1
    43   22   23 1
    44   23   41 1
    45   23   42 1
    46   23   43 1
@<TRIPOS>MOLECULE
ZINC62239363
   36    37     0     0     0
SMALL
USER_CHARGES

@<TRIPOS>ATOM
      1 C1         -0.6348    0.4024   -1.2206 C.3       1 <0>        -0.1512
      2 C2          0.1698    0.3588    0.0800 C.3       1 <0>        -0.0109
      3 C3          0.6928    1.7598    0.4034 C.3       1 <0>        -0.1675
      4 C4         -0.7289   -0.1257    1.2196 C.3       1 <0>        -0.1575
      5 C5          1.3322   -0.5869   -0.0798 C.2       1 <0>         0.0398
      6 C6          1.3392   -1.9177    0.1681 C.2       1 <0>        -0.0980
      7 N1          2.5742   -2.3503   -0.1096 N.2       1 <0>        -0.2256
      8 N2          3.2886   -1.3563   -0.5041 N.2       1 <0>        -0.0395
      9 N3          2.5865   -0.2773   -0.5084 N.pl3     1 <0>        -0.2258
     10 C7          3.0364    0.9962   -0.8861 C.ar      1 <0>         0.0960
     11 C8          2.3366    1.7275   -1.8365 C.ar      1 <0>        -0.0855
     12 C9          2.7815    2.9816   -2.2065 C.ar      1 <0>        -0.0983
     13 C10         3.9228    3.5095   -1.6315 C.ar      1 <0>        -0.0575
     14 C11         4.6225    2.7835   -0.6842 C.ar      1 <0>        -0.0813
     15 C12         4.1788    1.5300   -0.3064 C.ar      1 <0>        -0.0568
     16 Br1         6.1829    3.5094    0.0995 Br        1 <0>        -0.0095
     17 C13         0.1827   -2.7487    0.6612 C.3       1 <0>         0.0836
     18 N4         -0.7941   -2.9204   -0.4224 N.4       1 <0>        -0.6399
     19 H1          0.0459    0.3549   -2.0707 H         1 <0>         0.0694
     20 H2         -1.3177   -0.4465   -1.2541 H         1 <0>         0.0488
     21 H3         -1.2057    1.3300   -1.2638 H         1 <0>         0.0957
     22 H4         -0.0859    2.3305    0.9093 H         1 <0>         0.0831
     23 H5          1.5652    1.6811    1.0522 H         1 <0>         0.0642
     24 H6          0.9718    2.2658   -0.5208 H         1 <0>         0.0805
     25 H7         -1.4748   -0.8161    0.8256 H         1 <0>         0.0514
     26 H8         -0.1228   -0.6346    1.9691 H         1 <0>         0.0769
     27 H9         -1.2295    0.7283    1.6758 H         1 <0>         0.0940
     28 H10         1.4453    1.3158   -2.2864 H         1 <0>         0.1424
     29 H11         2.2374    3.5504   -2.9460 H         1 <0>         0.1552
     30 H12         4.2689    4.4903   -1.9227 H         1 <0>         0.1528
     31 H13         4.7226    0.9652    0.4364 H         1 <0>         0.1480
     32 H14         0.5470   -3.7252    0.9802 H         1 <0>         0.1587
     33 H15        -0.2932   -2.2457    1.5031 H         1 <0>         0.1583
     34 H16        -0.3566   -3.3961   -1.1973 H         1 <0>         0.4396
     35 H17        -1.5737   -3.4671   -0.0889 H         1 <0>         0.4437
     36 H18        -1.1228   -2.0158   -0.7254 H         1 <0>         0.4229
@<TRIPOS>BOND
     1    1    2 1
     2    1   19 1
     3    1   20 1
     4    1   21 1
     5    2    3 1
     6    2    4 1
     7    2    5 1
     8    3   22 1
     9    3   23 1
    10    3   24 1
    11    4   25 1
    12    4   26 1
    13    4   27 1
    14    5    9 1
    15    5    6 2
    16    6    7 1
    17    6   17 1
    18    7    8 2
    19    8    9 1
    20    9   10 1
    21   10   15 ar
    22   10   11 ar
    23   11   12 ar
    24   11   28 1
    25   12   13 ar
    26   12   29 1
    27   13   14 ar
    28   13   30 1
    29   14   15 ar
    30   14   16 1
    31   15   31 1
    32   17   18 1
    33   17   32 1
    34   17   33 1
    35   18   34 1
    36   18   35 1
    37   18   36 1
@<TRIPOS>MOLECULE
ZINC05092802
   24    25     0     0     0
SMALL
USER_CHARGES
(4R)-4-(4-chlorophenyl)-1,1-dioxo-1,2,5-thiadiazolidin-3-imine
@<TRIPOS>ATOM
      1 C1          2.3545    2.4216    0.0591 C.ar      1 <0>        -0.0785
      2 C2          3.6225    2.9112   -0.1915 C.ar      1 <0>        -0.0990
      3 C3          4.4972    2.1915   -0.9860 C.ar      1 <0>        -0.0060
      4 C4          4.1038    0.9792   -1.5245 C.ar      1 <0>        -0.1016
      5 C5          2.8376    0.4879   -1.2685 C.ar      1 <0>        -0.0842
      6 C6          1.9640    1.2078   -0.4750 C.ar      1 <0>        -0.1550
      7 C7          0.5831    0.6720   -0.1971 C.3       1 <0>         0.1574
      8 H1          0.5709   -0.3995   -0.3967 H         1 <0>         0.1818
      9 C8         -0.3941    1.3484   -1.1035 C.cat     1 <0>         0.5410
     10 N1         -1.3803    2.0353   -0.4622 N.pl3     1 <0>        -0.9881
     11 S1         -1.1144    1.8517    1.1720 S.o2      1 <0>         2.7364
     12 O1         -2.1852    1.0737    1.6892 O.2       1 <0>        -0.8952
     13 O2         -0.7593    3.1272    1.6879 O.2       1 <0>        -0.8976
     14 N2          0.2560    0.9001    1.2160 N.pl3     1 <0>        -1.0742
     15 Cl1         6.0873    2.8094   -1.3074 Cl        1 <0>        -0.0331
     16 H2          1.6701    2.9855    0.6755 H         1 <0>         0.1414
     17 H3          3.9290    3.8575    0.2292 H         1 <0>         0.1505
     18 H4          4.7864    0.4168   -2.1444 H         1 <0>         0.1517
     19 H5          2.5305   -0.4584   -1.6887 H         1 <0>         0.1483
     20 H6         -0.9194    1.7090   -3.0282 H         1 <0>         0.4647
     21 H7         -2.1003    2.5354   -0.8774 H         1 <0>         0.4724
     22 H8          0.7286    0.5724    1.9970 H         1 <0>         0.4732
     23 N3         -0.2540    1.2486   -2.4070 N.pl3     1 <0>        -0.6812
     24 H9          0.5251    0.7073   -2.7997 H         1 <0>         0.4746
@<TRIPOS>BOND
     1    1    6 ar
     2    1    2 ar
     3    1   16 1
     4    2    3 ar
     5    2   17 1
     6    3    4 ar
     7    3   15 1
     8    4    5 ar
     9    4   18 1
    10    5    6 ar
    11    5   19 1
    12    6    7 1
    13    7    8 1
    14    7   14 1
    15    7    9 1
    16    9   10 1
    17    9   23 2
    18   10   11 1
    19   10   21 1
    20   11   12 2
    21   11   13 2
    22   11   14 1
    23   14   22 1
    24   20   23 1
    25   23   24 1
@<TRIPOS>MOLECULE
ZINC37616508
   39    41     0     0     0
SMALL
USER_CHARGES

@<TRIPOS>ATOM
      1 C1          0.1855    1.4177    0.6360 C.ar      1 <0>        -0.1026
      2 C2          1.2057    2.1241    0.0249 C.ar      1 <0>        -0.0869
      3 C3          2.2376    1.4523   -0.6021 C.ar      1 <0>        -0.1203
      4 C4          2.2526    0.0654   -0.6200 C.ar      1 <0>         0.1422
      5 C5          1.2243   -0.6467   -0.0041 C.ar      1 <0>         0.1244
      6 C6          0.1921    0.0361    0.6231 C.ar      1 <0>        -0.0940
      7 N1          1.2330   -2.0465   -0.0189 N.am      1 <0>        -0.6571
      8 C7          0.0726   -2.7268   -0.1027 C.2       1 <0>         0.5052
      9 O1         -0.9707   -2.1290   -0.2623 O.2       1 <0>        -0.4591
     10 C8          0.0712   -4.2301    0.0020 C.3       1 <0>         0.0353
     11 C9          0.2276   -4.8712   -1.3993 C.3       1 <0>        -0.1294
     12 C10        -1.2107   -4.8012   -1.9697 C.3       1 <0>        -0.1235
     13 C11        -2.1143   -5.0986   -0.7553 C.3       1 <0>        -0.1209
     14 C12        -1.2992   -4.7355    0.4984 C.3       1 <0>        -0.1228
     15 N2          1.1421   -4.6827    0.8999 N.4       1 <0>        -0.6304
     16 N3          3.2987   -0.6185   -1.2562 N.pl3     1 <0>        -0.3192
     17 C13         4.3036   -0.0549   -1.9637 C.2       1 <0>         0.0710
     18 C14         5.1020   -1.0520   -2.4111 C.2       1 <0>        -0.2540
     19 C15         4.5683   -2.2651   -1.9629 C.2       1 <0>         0.0764
     20 N4          3.4909   -2.0061   -1.2661 N.2       1 <0>        -0.3450
     21 H1         -0.6164    1.9477    1.1286 H         1 <0>         0.1420
     22 H2          1.1955    3.2039    0.0375 H         1 <0>         0.1449
     23 H3          3.0323    2.0070   -1.0785 H         1 <0>         0.1419
     24 H4         -0.6059   -0.5123    1.1015 H         1 <0>         0.1423
     25 H5          2.0743   -2.5268    0.0312 H         1 <0>         0.4127
     26 H6          0.9159   -4.2917   -2.0145 H         1 <0>         0.1003
     27 H7          0.5601   -5.9059   -1.3157 H         1 <0>         0.1085
     28 H8         -1.4167   -3.8060   -2.3639 H         1 <0>         0.0837
     29 H9         -1.3513   -5.5557   -2.7437 H         1 <0>         0.0948
     30 H10        -3.0168   -4.4893   -0.8033 H         1 <0>         0.0891
     31 H11        -2.3777   -6.1561   -0.7360 H         1 <0>         0.0852
     32 H12        -1.1672   -5.6168    1.1261 H         1 <0>         0.0981
     33 H13        -1.8063   -3.9500    1.0588 H         1 <0>         0.1070
     34 H14         0.9933   -4.2988    1.8211 H         1 <0>         0.4398
     35 H15         1.1352   -5.6904    0.9504 H         1 <0>         0.4444
     36 H16         4.4437    1.0013   -2.1406 H         1 <0>         0.1851
     37 H17         5.9934   -0.9324   -3.0089 H         1 <0>         0.1622
     38 H18         4.9774   -3.2460   -2.1549 H         1 <0>         0.1953
     39 H19         2.0332   -4.3697    0.5451 H         1 <0>         0.4334
@<TRIPOS>BOND
     1    1    6 ar
     2    1    2 ar
     3    1   21 1
     4    2    3 ar
     5    2   22 1
     6    3    4 ar
     7    3   23 1
     8    4    5 ar
     9    4   16 1
    10    5    6 ar
    11    5    7 1
    12    6   24 1
    13    7    8 am
    14    7   25 1
    15    8    9 2
    16    8   10 1
    17   10   14 1
    18   10   11 1
    19   10   15 1
    20   11   12 1
    21   11   26 1
    22   11   27 1
    23   12   13 1
    24   12   28 1
    25   12   29 1
    26   13   14 1
    27   13   30 1
    28   13   31 1
    29   14   32 1
    30   14   33 1
    31   15   34 1
    32   15   35 1
    33   15   39 1
    34   16   20 1
    35   16   17 1
    36   17   18 2
    37   17   36 1
    38   18   19 1
    39   18   37 1
    40   19   20 2
    41   19   38 1
@<TRIPOS>MOLECULE
ZINC40452963
   35    36     0     0     0
SMALL
USER_CHARGES

@<TRIPOS>ATOM
      1 C1          1.2377   -0.6488    0.0005 C.ar      1 <0>        -0.2068
      2 C2          2.3950    0.1079   -0.0079 C.ar      1 <0>         0.1831
      3 N1          2.3447    1.4232   -0.0143 N.ar      1 <0>        -0.4893
      4 C3          1.1899    2.0802   -0.0131 C.ar      1 <0>         0.1382
      5 C4         -0.0169    1.3907   -0.0045 C.ar      1 <0>        -0.1392
      6 C5          0.0021   -0.0041    0.0020 C.ar      1 <0>         0.3135
      7 N2         -1.1833   -0.7337    0.0099 N.pl3     1 <0>        -0.5519
      8 C6         -1.1614   -2.1985   -0.1023 C.3       1 <0>         0.0940
      9 C7         -1.9514   -2.7944    1.0671 C.3       1 <0>        -0.1392
     10 C8         -3.3558   -2.1867    1.0911 C.3       1 <0>        -0.1198
     11 C9         -3.2553   -0.6736    1.2973 C.3       1 <0>        -0.1039
     12 H1         -2.7328   -0.4676    2.2315 H         1 <0>         0.0883
     13 C10        -2.4798   -0.0541    0.1366 C.3       1 <0>         0.0982
     14 C11        -4.6607   -0.0716    1.3547 C.3       1 <0>         0.0809
     15 O1         -5.3437   -0.5655    2.5087 O.3       1 <0>        -0.5698
     16 C12         1.1886    3.5620   -0.0206 C.2       1 <0>         0.5579
     17 O2          0.1357    4.1686   -0.0196 O.2       1 <0>        -0.4755
     18 N3          2.3552    4.2369   -0.0286 N.am      1 <0>        -0.8341
     19 H2          1.2908   -1.7275    0.0012 H         1 <0>         0.1848
     20 H3          3.3546   -0.3876   -0.0088 H         1 <0>         0.2134
     21 H4         -0.9547    1.9265   -0.0028 H         1 <0>         0.1886
     22 H5         -1.6199   -2.4997   -1.0442 H         1 <0>         0.0971
     23 H6         -0.1312   -2.5525   -0.0654 H         1 <0>         0.0981
     24 H7         -2.0246   -3.8749    0.9437 H         1 <0>         0.0943
     25 H8         -1.4412   -2.5685    2.0035 H         1 <0>         0.0745
     26 H9         -3.8564   -2.3918    0.1448 H         1 <0>         0.0712
     27 H10        -3.9282   -2.6272    1.9074 H         1 <0>         0.0882
     28 H11        -2.3190    1.0063    0.3311 H         1 <0>         0.0989
     29 H12        -3.0482   -0.1766   -0.7854 H         1 <0>         0.0986
     30 H13        -4.5887    1.0145    1.4124 H         1 <0>         0.0518
     31 H14        -5.2131   -0.3520    0.4579 H         1 <0>         0.0536
     32 H15        -6.2431   -0.2248    2.6093 H         1 <0>         0.3907
     33 H16         3.1957    3.7526   -0.0294 H         1 <0>         0.4002
     34 H17         2.3543    5.2069   -0.0335 H         1 <0>         0.4311
     35 H18         3.1737    1.9267   -0.0198 H         1 <0>         0.4401
@<TRIPOS>BOND
     1    1    6 ar
     2    1    2 ar
     3    1   19 1
     4    2    3 ar
     5    2   20 1
     6    3    4 ar
     7    3   35 1
     8    4    5 ar
     9    4   16 1
    10    5    6 ar
    11    5   21 1
    12    6    7 1
    13    7   13 1
    14    7    8 1
    15    8    9 1
    16    8   22 1
    17    8   23 1
    18    9   10 1
    19    9   24 1
    20    9   25 1
    21   10   11 1
    22   10   26 1
    23   10   27 1
    24   11   12 1
    25   11   13 1
    26   11   14 1
    27   13   28 1
    28   13   29 1
    29   14   15 1
    30   14   30 1
    31   14   31 1
    32   15   32 1
    33   16   17 2
    34   16   18 am
    35   18   33 1
    36   18   34 1
@<TRIPOS>MOLECULE
ZINC49986759
   39    40     0     0     0
SMALL
USER_CHARGES

@<TRIPOS>ATOM
      1 C1          0.0498   -2.8108   -2.5242 C.3       1 <0>        -0.1244
      2 C2          0.0331   -2.0701   -1.2119 C.ar      1 <0>        -0.0291
      3 C3          0.0001   -0.6876   -1.1995 C.ar      1 <0>        -0.1430
      4 C4         -0.0158   -0.0040    0.0025 C.ar      1 <0>        -0.0316
      5 C5          0.0012   -0.7003    1.1950 C.ar      1 <0>        -0.1897
      6 C6          0.0343   -2.0891    1.1862 C.ar      1 <0>         0.1780
      7 C7          0.0449   -2.7728   -0.0230 C.ar      1 <0>        -0.1648
      8 N1          0.0521   -2.7969    2.3911 N.pl3     1 <0>        -0.6011
      9 C8         -0.0361   -4.2592    2.3830 C.3       1 <0>         0.0826
     10 C9          0.1534   -2.1128    3.5982 C.ar      1 <0>         0.4121
     11 C10         1.4059   -1.7525    4.0811 C.ar      1 <0>        -0.0801
     12 C11         1.4903   -1.0664    5.2930 C.ar      1 <0>         0.1007
     13 C12         0.3015   -0.7706    5.9715 C.ar      1 <0>        -0.1172
     14 C13        -0.9008   -1.1639    5.4235 C.ar      1 <0>         0.1558
     15 N2         -0.9447   -1.8073    4.2721 N.ar      1 <0>        -0.4565
     16 C14         2.8033   -0.6619    5.8478 C.2       1 <0>         0.3715
     17 N3          3.8963   -0.9457    5.2039 N.2       1 <0>        -0.3702
     18 O1          5.1510   -0.5592    5.7341 O.3       1 <0>        -0.3881
     19 N4          2.8660    0.0184    7.0523 N.pl3     1 <0>        -0.8587
     20 C15        -0.0512    1.5026    0.0111 C.3       1 <0>        -0.1227
     21 H1         -0.9736   -3.0096   -2.8423 H         1 <0>         0.0798
     22 H2          0.5531   -2.2044   -3.2772 H         1 <0>         0.0756
     23 H3          0.5821   -3.7541   -2.4022 H         1 <0>         0.0725
     24 H4         -0.0129   -0.1407   -2.1306 H         1 <0>         0.1315
     25 H5         -0.0109   -0.1658    2.1334 H         1 <0>         0.1096
     26 H6          0.0662   -3.8525   -0.0334 H         1 <0>         0.1338
     27 H7          0.9666   -4.6833    2.3298 H         1 <0>         0.0786
     28 H8         -0.5262   -4.5987    3.2955 H         1 <0>         0.0759
     29 H9         -0.6141   -4.5836    1.5177 H         1 <0>         0.0974
     30 H10         2.2994   -1.9999    3.5273 H         1 <0>         0.1969
     31 H11         0.3263   -0.2412    6.9125 H         1 <0>         0.1912
     32 H12        -1.8208   -0.9384    5.9423 H         1 <0>         0.2215
     33 H13         5.9053   -0.8137    5.1852 H         1 <0>         0.4177
     34 H14         2.0504    0.2302    7.5328 H         1 <0>         0.4005
     35 H15         3.7256    0.2832    7.4155 H         1 <0>         0.4238
     36 H16        -1.0871    1.8416    0.0133 H         1 <0>         0.0780
     37 H17         0.4542    1.8728    0.9031 H         1 <0>         0.0667
     38 H18         0.4537    1.8829   -0.8769 H         1 <0>         0.0770
     39 H19        -1.8065   -2.0674    3.9107 H         1 <0>         0.4483
@<TRIPOS>BOND
     1    1    2 1
     2    1   21 1
     3    1   22 1
     4    1   23 1
     5    2    7 ar
     6    2    3 ar
     7    3    4 ar
     8    3   24 1
     9    4    5 ar
    10    4   20 1
    11    5    6 ar
    12    5   25 1
    13    6    7 ar
    14    6    8 1
    15    7   26 1
    16    8    9 1
    17    8   10 1
    18    9   27 1
    19    9   28 1
    20    9   29 1
    21   10   15 ar
    22   10   11 ar
    23   11   12 ar
    24   11   30 1
    25   12   13 ar
    26   12   16 1
    27   13   14 ar
    28   13   31 1
    29   14   15 ar
    30   14   32 1
    31   15   39 1
    32   16   17 2
    33   16   19 1
    34   17   18 1
    35   18   33 1
    36   19   34 1
    37   19   35 1
    38   20   36 1
    39   20   37 1
    40   20   38 1
@<TRIPOS>MOLECULE
ZINC55141644
   45    46     0     0     0
SMALL
USER_CHARGES

@<TRIPOS>ATOM
      1 C1         -0.0178    1.4608    0.0101 C.3       1 <0>         0.0866
      2 N1          0.0021   -0.0041    0.0020 N.am      1 <0>        -0.7318
      3 C2          0.5851   -0.6645   -1.0180 C.2       1 <0>         0.5054
      4 O1          1.0933   -0.0461   -1.9292 O.2       1 <0>        -0.5230
      5 C3          0.6055   -2.1713   -1.0263 C.3       1 <0>         0.1186
      6 H1         -0.4142   -2.5559   -1.0061 H         1 <0>         0.1054
      7 C4          1.3873   -2.6924    0.1981 C.3       1 <0>        -0.1269
      8 C5          2.1573   -3.9117   -0.3745 C.3       1 <0>        -0.1322
      9 C6          2.4868   -3.4262   -1.8081 C.3       1 <0>         0.0964
     10 N2          1.2987   -2.6554   -2.2291 N.am      1 <0>        -0.6018
     11 C7          0.9132   -2.4323   -3.5011 C.2       1 <0>         0.5367
     12 O2         -0.0851   -1.7816   -3.7270 O.2       1 <0>        -0.5117
     13 C8          1.7226   -2.9912   -4.6428 C.3       1 <0>        -0.1488
     14 C9          1.0728   -2.5957   -5.9703 C.3       1 <0>        -0.0898
     15 H2          0.0320   -2.9194   -5.9761 H         1 <0>         0.1048
     16 C10         1.1353   -1.0760   -6.1359 C.3       1 <0>        -0.1182
     17 C11         0.4855   -0.6805   -7.4634 C.3       1 <0>        -0.1280
     18 C12         1.2343   -1.3504   -8.6173 C.3       1 <0>        -0.1187
     19 C13         1.1718   -2.8701   -8.4517 C.3       1 <0>        -0.1386
     20 C14         1.8216   -3.2656   -7.1242 C.3       1 <0>         0.0292
     21 H3          2.8624   -2.9420   -7.1185 H         1 <0>         0.1444
     22 N3          1.7617   -4.7248   -6.9652 N.4       1 <0>        -0.6394
     23 H4          1.0048    1.8381    0.0023 H         1 <0>         0.0612
     24 H5         -0.5450    1.8219   -0.8730 H         1 <0>         0.0613
     25 H6         -0.5280    1.8123    0.9069 H         1 <0>         0.0802
     26 H7         -0.4044   -0.4986    0.7308 H         1 <0>         0.4031
     27 H8          2.0810   -1.9352    0.5635 H         1 <0>         0.0859
     28 H9          0.7038   -3.0041    0.9879 H         1 <0>         0.0986
     29 H10         3.0684   -4.1000    0.1933 H         1 <0>         0.0955
     30 H11         1.5233   -4.7980   -0.3982 H         1 <0>         0.0840
     31 H12         3.3706   -2.7883   -1.7989 H         1 <0>         0.0770
     32 H13         2.6394   -4.2777   -2.4713 H         1 <0>         0.0784
     33 H14         2.7355   -2.5907   -4.6005 H         1 <0>         0.1105
     34 H15         1.7581   -4.0779   -4.5652 H         1 <0>         0.0825
     35 H16         0.6018   -0.5987   -5.3138 H         1 <0>         0.1060
     36 H17         2.1761   -0.7523   -6.1301 H         1 <0>         0.0690
     37 H18        -0.5553   -1.0041   -7.4691 H         1 <0>         0.0705
     38 H19         0.5300    0.4022   -7.5813 H         1 <0>         0.0790
     39 H20         0.7714   -1.0686   -9.5630 H         1 <0>         0.0849
     40 H21         2.2751   -1.0267   -8.6115 H         1 <0>         0.0745
     41 H22         0.1310   -3.1938   -8.4574 H         1 <0>         0.0884
     42 H23         1.7053   -3.3474   -9.2738 H         1 <0>         0.0894
     43 H24         0.7982   -5.0244   -6.9706 H         1 <0>         0.4339
     44 H25         2.2555   -5.1666   -7.7262 H         1 <0>         0.4369
     45 H26         2.1902   -4.9856   -6.0898 H         1 <0>         0.4307
@<TRIPOS>BOND
     1    1    2 1
     2    1   23 1
     3    1   24 1
     4    1   25 1
     5    2    3 am
     6    2   26 1
     7    3    4 2
     8    3    5 1
     9    5    6 1
    10    5   10 1
    11    5    7 1
    12    7    8 1
    13    7   27 1
    14    7   28 1
    15    8    9 1
    16    8   29 1
    17    8   30 1
    18    9   10 1
    19    9   31 1
    20    9   32 1
    21   10   11 am
    22   11   12 2
    23   11   13 1
    24   13   14 1
    25   13   33 1
    26   13   34 1
    27   14   15 1
    28   14   20 1
    29   14   16 1
    30   16   17 1
    31   16   35 1
    32   16   36 1
    33   17   18 1
    34   17   37 1
    35   17   38 1
    36   18   19 1
    37   18   39 1
    38   18   40 1
    39   19   20 1
    40   19   41 1
    41   19   42 1
    42   20   21 1
    43   20   22 1
    44   22   43 1
    45   22   44 1
    46   22   45 1
@<TRIPOS>MOLECULE
ZINC04726720
   58    59     0     0     0
SMALL
USER_CHARGES
N-[(6-ethyl-2,2-dimethyl-4-piperidylidene)amino]-2,2,6,6-tetramethyl-piperidin-4-imine
@<TRIPOS>ATOM
      1 C1          0.2639    5.5027   -0.0107 C.3       1 <0>        -0.1745
      2 C2         -1.2141    5.1106    0.0409 C.3       1 <0>        -0.1475
      3 C3         -1.3373    3.5855    0.0417 C.3       1 <0>         0.0364
      4 H1         -0.8100    3.1775   -0.8206 H         1 <0>         0.1413
      5 C4         -2.8172    3.1921   -0.0309 C.3       1 <0>        -0.1445
      6 C5         -2.9166    1.6893    0.1273 C.2       1 <0>         0.1811
      7 N1         -3.6174    0.9760   -0.6929 N.2       1 <0>        -0.3556
      8 N2         -4.3009    1.5920   -1.7493 N.2       1 <0>        -0.3577
      9 C6         -5.0007    0.8798   -2.5681 C.2       1 <0>         0.1875
     10 C7         -5.1110   -0.6216   -2.4202 C.3       1 <0>        -0.1312
     11 C8         -4.6867   -1.2711   -3.7406 C.3       1 <0>         0.0679
     12 C9         -5.3259    0.8108   -5.0174 C.3       1 <0>         0.0663
     13 C10        -5.7535    1.5049   -3.7214 C.3       1 <0>        -0.0812
     14 C11        -6.3667    1.1700   -6.1011 C.3       1 <0>        -0.1871
     15 C12        -3.9783    1.3819   -5.4745 C.3       1 <0>        -0.1711
     16 C13        -5.1586   -2.7415   -3.7077 C.3       1 <0>        -0.1861
     17 C14        -3.1560   -1.2859   -3.8264 C.3       1 <0>        -0.1696
     18 C15        -2.1673    1.0494    1.2776 C.3       1 <0>        -0.0897
     19 C16        -0.7288    1.5792    1.2668 C.3       1 <0>         0.0707
     20 C17        -0.0127    1.0858    0.0080 C.3       1 <0>        -0.1763
     21 C18         0.0109    1.0725    2.5065 C.3       1 <0>        -0.1796
     22 H2          0.7781    5.0971    0.8606 H         1 <0>         0.0531
     23 H3          0.7149    5.1013   -0.9182 H         1 <0>         0.0718
     24 H4          0.3517    6.5892   -0.0113 H         1 <0>         0.0885
     25 H5         -1.7283    5.5162   -0.8305 H         1 <0>         0.1129
     26 H6         -1.6651    5.5120    0.9484 H         1 <0>         0.0926
     27 H7         -3.3679    3.6834    0.7713 H         1 <0>         0.1160
     28 H8         -3.2295    3.4883   -0.9955 H         1 <0>         0.1335
     29 H9         -4.4571   -0.9614   -1.6161 H         1 <0>         0.1327
     30 H10        -6.1419   -0.8941   -2.1906 H         1 <0>         0.1148
     31 H11        -6.8267    1.3774   -3.5725 H         1 <0>         0.1233
     32 H12        -5.5195    2.5690   -3.7796 H         1 <0>         0.1316
     33 H13        -6.3905    2.2511   -6.2379 H         1 <0>         0.1104
     34 H14        -6.0926    0.6908   -7.0411 H         1 <0>         0.0887
     35 H15        -7.3512    0.8214   -5.7891 H         1 <0>         0.0871
     36 H16        -3.2292    1.2080   -4.7020 H         1 <0>         0.0758
     37 H17        -3.6696    0.8906   -6.3972 H         1 <0>         0.0863
     38 H18        -4.0782    2.4532   -5.6491 H         1 <0>         0.1086
     39 H19        -4.8392   -3.2461   -4.6195 H         1 <0>         0.0876
     40 H20        -4.7237   -3.2434   -2.8433 H         1 <0>         0.1073
     41 H21        -6.2458   -2.7727   -3.6369 H         1 <0>         0.0857
     42 H22        -2.7852   -0.2623   -3.8787 H         1 <0>         0.0751
     43 H23        -2.7473   -1.7757   -2.9425 H         1 <0>         0.1036
     44 H24        -2.8474   -1.8303   -4.7188 H         1 <0>         0.0868
     45 H25        -2.1610   -0.0337    1.1554 H         1 <0>         0.1326
     46 H26        -2.6483    1.3107    2.2202 H         1 <0>         0.1234
     47 H27         0.0021   -0.0041    0.0020 H         1 <0>         0.1077
     48 H28         1.0099    1.4631    0.0003 H         1 <0>         0.0890
     49 H29        -0.5399    1.4469   -0.8751 H         1 <0>         0.0746
     50 H30         1.0335    1.4498    2.4989 H         1 <0>         0.0900
     51 H31        -0.4994    1.4242    3.4032 H         1 <0>         0.0883
     52 H32         0.0257   -0.0173    2.5007 H         1 <0>         0.1110
     53 N3         -5.3099   -0.6781   -4.9573 N.4       1 <0>        -0.5117
     54 H33        -6.2818   -1.0058   -5.0051 H         1 <0>         0.4341
     55 H34        -4.7925   -1.0208   -5.7753 H         1 <0>         0.4363
     56 N4         -0.7444    3.0556    1.2859 N.4       1 <0>        -0.5161
     57 H35        -1.2997    3.3768    2.0876 H         1 <0>         0.4325
     58 H36         0.2180    3.4020    1.3752 H         1 <0>         0.4349
@<TRIPOS>BOND
     1    1    2 1
     2    1   22 1
     3    1   23 1
     4    1   24 1
     5    2    3 1
     6    2   25 1
     7    2   26 1
     8    3    4 1
     9    3    5 1
    10    3   56 1
    11    5    6 1
    12    5   27 1
    13    5   28 1
    14    6    7 2
    15    6   18 1
    16    7    8 1
    17    8    9 2
    18    9   13 1
    19    9   10 1
    20   10   11 1
    21   10   29 1
    22   10   30 1
    23   11   16 1
    24   11   17 1
    25   11   53 1
    26   12   13 1
    27   12   14 1
    28   12   15 1
    29   12   53 1
    30   13   31 1
    31   13   32 1
    32   14   33 1
    33   14   34 1
    34   14   35 1
    35   15   36 1
    36   15   37 1
    37   15   38 1
    38   16   39 1
    39   16   40 1
    40   16   41 1
    41   17   42 1
    42   17   43 1
    43   17   44 1
    44   18   19 1
    45   18   45 1
    46   18   46 1
    47   19   20 1
    48   19   21 1
    49   19   56 1
    50   20   47 1
    51   20   48 1
    52   20   49 1
    53   21   50 1
    54   21   51 1
    55   21   52 1
    56   53   54 1
    57   53   55 1
    58   56   57 1
    59   56   58 1
@<TRIPOS>MOLECULE
ZINC39016642
   30    32     0     0     0
SMALL
USER_CHARGES

@<TRIPOS>ATOM
      1 C1         -0.0162    1.3469    0.0094 C.ar      1 <0>        -0.0014
      2 C2          1.1685    2.1018    0.0022 C.ar      1 <0>         0.1441
      3 C3          2.3951    1.5361   -0.0125 C.ar      1 <0>        -0.1994
      4 C4          2.5337    0.1249   -0.0215 C.ar      1 <0>         0.3759
      5 N1          3.7316   -0.4211   -0.0354 N.pl3     1 <0>        -0.5307
      6 C5          3.8982   -1.7532   -0.0446 C.2       1 <0>         0.4475
      7 N2          5.0919   -2.2688   -0.0583 N.2       1 <0>        -0.8129
      8 S1          6.4207   -1.2805   -0.0644 S.o2      1 <0>         2.6283
      9 O1          6.4067   -0.5889   -1.3057 O.2       1 <0>        -0.9068
     10 O2          6.4290   -0.6033    1.1848 O.2       1 <0>        -0.9092
     11 C6          7.8431   -2.3201   -0.0832 C.2       1 <0>        -0.7829
     12 C7          8.5257   -2.8129   -1.1450 C.2       1 <0>         0.0475
     13 C8          9.6265   -3.6188   -0.9195 C.2       1 <0>        -0.1873
     14 C9          9.9899   -3.8919    0.3586 C.2       1 <0>        -0.0474
     15 S2          8.7633   -2.9908    1.2917 S.3       1 <0>         0.2583
     16 Cl1        11.3096   -4.8604    0.9368 Cl        1 <0>         0.0726
     17 C10         2.6774   -2.6452   -0.0383 C.3       1 <0>         0.1323
     18 H1          2.7425   -3.2921    0.8366 H         1 <0>         0.2501
     19 N3          1.3552   -2.0000   -0.0222 N.pl3     1 <0>        -0.4280
     20 C11         1.2987   -0.6973   -0.0141 C.ar      1 <0>         0.3565
     21 C12         0.0021   -0.0041    0.0020 C.ar      1 <0>        -0.1188
     22 Cl2         2.7573   -3.6976   -1.5001 Cl        1 <0>         0.0491
     23 H2         -0.9665    1.8598    0.0259 H         1 <0>         0.2175
     24 H3          1.0956    3.1793    0.0083 H         1 <0>         0.2173
     25 H4          3.2751    2.1622   -0.0179 H         1 <0>         0.2186
     26 H5          8.2144   -2.5800   -2.1526 H         1 <0>         0.1634
     27 H6         10.1879   -4.0248   -1.7480 H         1 <0>         0.1705
     28 H7         -0.9205   -0.5655    0.0082 H         1 <0>         0.2244
     29 H8          0.5439   -2.5316   -0.0180 H         1 <0>         0.4922
     30 H9          4.5132    0.1534   -0.0394 H         1 <0>         0.4587
@<TRIPOS>BOND
     1    1   21 ar
     2    1    2 ar
     3    1   23 1
     4    2    3 ar
     5    2   24 1
     6    3    4 ar
     7    3   25 1
     8    4   20 ar
     9    4    5 2
    10    5    6 1
    11    5   30 1
    12    6    7 2
    13    6   17 1
    14    7    8 1
    15    8    9 2
    16    8   10 2
    17    8   11 1
    18   11   15 1
    19   11   12 2
    20   12   13 1
    21   12   26 1
    22   13   14 2
    23   13   27 1
    24   14   15 1
    25   14   16 1
    26   17   18 1
    27   17   19 1
    28   17   22 1
    29   19   20 2
    30   19   29 1
    31   20   21 ar
    32   21   28 1
@<TRIPOS>MOLECULE
ZINC39702942
   43    45     0     0     0
SMALL
USER_CHARGES

@<TRIPOS>ATOM
      1 C1          0.3367    1.5967    0.1538 C.3       1 <0>        -0.1611
      2 C2          0.1912    0.0968    0.1723 C.ar      1 <0>         0.0860
      3 C3         -0.1292   -0.5652   -1.0263 C.ar      1 <0>         0.0324
      4 C4         -0.2787   -1.9029   -1.1002 C.ar      1 <0>        -0.1347
      5 C5         -0.1034   -2.7198    0.1086 C.ar      1 <0>         0.3283
      6 N1         -0.1845   -3.9998    0.3312 N.pl3     1 <0>        -0.4643
      7 C6          0.0962   -4.2178    1.7558 C.3       1 <0>         0.3283
      8 H1         -0.7648   -4.6782    2.2406 H         1 <0>         0.2482
      9 N2          0.3520   -2.8930    2.3350 N.pl3     1 <0>        -0.4804
     10 C7          0.2362   -2.0192    1.3772 C.ar      1 <0>         0.3239
     11 C8          0.3787   -0.5572    1.3361 C.ar      1 <0>        -0.1682
     12 C9          1.3101   -5.0965    1.9153 C.2       1 <0>        -0.2062
     13 C10         1.2143   -6.2650    2.5847 C.2       1 <0>         0.1608
     14 C11         2.4253   -7.0436    2.8810 C.ar      1 <0>        -0.1597
     15 C12         3.6172   -6.3886    3.2132 C.ar      1 <0>        -0.0546
     16 C13         4.7489   -7.1210    3.4898 C.ar      1 <0>        -0.1251
     17 C14         4.7102   -8.5115    3.4398 C.ar      1 <0>         0.2700
     18 C15         3.5269   -9.1675    3.1099 C.ar      1 <0>        -0.1173
     19 C16         2.3886   -8.4422    2.8373 C.ar      1 <0>        -0.0245
     20 Br1         3.4815  -11.0568    3.0432 Br        1 <0>        -0.0007
     21 N3          5.8580   -9.2486    3.7201 N.pl3     1 <0>        -0.6936
     22 C17         6.1396   -9.6715    5.0942 C.3       1 <0>         0.1103
     23 C18         6.7838   -9.6013    2.6409 C.3       1 <0>         0.1127
     24 C19         2.5651   -4.6920    1.3568 C.1       1 <0>         0.1978
     25 N4          3.5607   -4.3712    0.9138 N.1       1 <0>        -0.3343
     26 H2          1.3713    1.8586   -0.0678 H         1 <0>         0.1310
     27 H3         -0.3162    2.0156   -0.6120 H         1 <0>         0.1147
     28 H4          0.0602    2.0006    1.1277 H         1 <0>         0.1112
     29 H5         -0.2612    0.0215   -1.9233 H         1 <0>         0.2043
     30 H6         -0.5259   -2.3711   -2.0415 H         1 <0>         0.2086
     31 H7          0.6281   -0.0099    2.2331 H         1 <0>         0.2043
     32 H8          0.2480   -6.6277    2.9026 H         1 <0>         0.1794
     33 H9          3.6485   -5.3097    3.2519 H         1 <0>         0.1281
     34 H10         5.6687   -6.6161    3.7458 H         1 <0>         0.1473
     35 H11         1.4700   -8.9516    2.5858 H         1 <0>         0.1513
     36 H12         5.6892  -10.6478    5.2735 H         1 <0>         0.0493
     37 H13         7.2178   -9.7363    5.2407 H         1 <0>         0.0728
     38 H14         5.7213   -8.9450    5.7909 H         1 <0>         0.0570
     39 H15         6.4103   -9.2034    1.6973 H         1 <0>         0.0602
     40 H16         7.7655   -9.1767    2.8511 H         1 <0>         0.0565
     41 H17         6.8644  -10.6860    2.5713 H         1 <0>         0.0587
     42 H18        -0.3925   -4.6842   -0.3240 H         1 <0>         0.4960
     43 H19         0.5677   -2.7037    3.2615 H         1 <0>         0.4950
@<TRIPOS>BOND
     1    1    2 1
     2    1   26 1
     3    1   27 1
     4    1   28 1
     5    2   11 ar
     6    2    3 ar
     7    3    4 ar
     8    3   29 1
     9    4    5 ar
    10    4   30 1
    11    5   10 ar
    12    5    6 2
    13    6    7 1
    14    6   42 1
    15    7    8 1
    16    7    9 1
    17    7   12 1
    18    9   10 2
    19    9   43 1
    20   10   11 ar
    21   11   31 1
    22   12   13 2
    23   12   24 1
    24   13   14 1
    25   13   32 1
    26   14   19 ar
    27   14   15 ar
    28   15   16 ar
    29   15   33 1
    30   16   17 ar
    31   16   34 1
    32   17   18 ar
    33   17   21 1
    34   18   19 ar
    35   18   20 1
    36   19   35 1
    37   21   22 1
    38   21   23 1
    39   22   36 1
    40   22   37 1
    41   22   38 1
    42   23   39 1
    43   23   40 1
    44   23   41 1
    45   24   25 3
@<TRIPOS>MOLECULE
ZINC54903784
   52    54     0     0     0
SMALL
USER_CHARGES

@<TRIPOS>ATOM
      1 C1         -1.5050    1.4808   -1.4044 C.3       1 <0>        -0.1920
      2 C2         -1.7262   -0.0314   -1.3306 C.3       1 <0>        -0.0141
      3 N1         -1.3761   -0.5125    0.0124 N.4       1 <0>        -0.5124
      4 C3         -1.4691   -1.9782    0.0472 C.3       1 <0>         0.1360
      5 H1         -0.8655   -2.4040   -0.7543 H         1 <0>         0.1699
      6 C4         -2.9349   -2.4090   -0.1224 C.3       1 <0>        -0.1340
      7 C5         -3.0585   -3.8923    0.2373 C.3       1 <0>        -0.0478
      8 C6         -2.8669   -4.0865    1.7430 C.3       1 <0>        -0.0704
      9 C7         -1.5658   -3.4153    2.1598 C.2       1 <0>         0.1861
     10 C8         -0.9842   -2.4819    1.3641 C.2       1 <0>        -0.3147
     11 S1          0.4623   -2.0351    2.2830 S.3       1 <0>         0.3237
     12 C9          0.2145   -3.0621    3.5961 C.cat     1 <0>         0.3370
     13 N2         -0.9116   -3.6730    3.2902 N.pl3     1 <0>        -0.5638
     14 N3          1.0033   -3.2239    4.7243 N.pl3     1 <0>        -0.4870
     15 C10         0.6094   -4.1793    5.7627 C.3       1 <0>         0.0437
     16 C11         2.2311   -2.4395    4.8783 C.3       1 <0>         0.1616
     17 H2          2.3574   -1.7888    4.0130 H         1 <0>         0.1051
     18 C12         2.1371   -1.5890    6.1466 C.3       1 <0>        -0.1785
     19 C13         3.4298   -3.3842    4.9853 C.3       1 <0>        -0.1990
     20 C14         4.1487   -3.4633    6.3335 C.3       1 <0>        -0.1707
     21 C15         4.8136   -2.7535    5.1525 C.3       1 <0>        -0.1519
     22 C16        -1.9909   -4.6878   -0.5167 C.3       1 <0>        -0.1672
     23 C17        -4.4445   -4.3986   -0.1672 C.3       1 <0>        -0.1526
     24 H3         -1.7648    1.8378   -2.4010 H         1 <0>         0.1156
     25 H4         -2.1344    1.9765   -0.6653 H         1 <0>         0.0838
     26 H5         -0.4582    1.7053   -1.1994 H         1 <0>         0.0828
     27 H6         -2.7729   -0.2559   -1.5356 H         1 <0>         0.1404
     28 H7         -1.0968   -0.5271   -2.0697 H         1 <0>         0.1386
     29 H8         -0.4336   -0.2299    0.2359 H         1 <0>         0.4239
     30 H9         -3.5682   -1.8186    0.5398 H         1 <0>         0.1026
     31 H10        -3.2430   -2.2571   -1.1568 H         1 <0>         0.1205
     32 H11        -3.7005   -3.6328    2.2791 H         1 <0>         0.1254
     33 H12        -2.8185   -5.1512    1.9711 H         1 <0>         0.1188
     34 H13         1.0434   -5.1546    5.5426 H         1 <0>         0.1038
     35 H14         0.9689   -3.8319    6.7313 H         1 <0>         0.1241
     36 H15        -0.4772   -4.2621    5.7868 H         1 <0>         0.0873
     37 H16         3.0506   -1.0054    6.2612 H         1 <0>         0.1033
     38 H17         1.2831   -0.9160    6.0703 H         1 <0>         0.0734
     39 H18         2.0108   -2.2397    7.0119 H         1 <0>         0.0853
     40 H19         3.3614   -4.2990    4.3966 H         1 <0>         0.1172
     41 H20         3.7677   -2.8423    7.1443 H         1 <0>         0.1108
     42 H21         4.5535   -4.4303    6.6322 H         1 <0>         0.1086
     43 H22         5.6558   -3.2535    4.6741 H         1 <0>         0.1118
     44 H23         4.8701   -1.6654    5.1862 H         1 <0>         0.1061
     45 H24        -1.0020   -4.3259   -0.2354 H         1 <0>         0.0544
     46 H25        -2.0773   -5.7441   -0.2619 H         1 <0>         0.0774
     47 H26        -2.1329   -4.5601   -1.5898 H         1 <0>         0.0804
     48 H27        -4.5784   -4.2719   -1.2415 H         1 <0>         0.0783
     49 H28        -4.5344   -5.4545    0.0881 H         1 <0>         0.0765
     50 H29        -5.2082   -3.8302    0.3637 H         1 <0>         0.0702
     51 H30        -2.0142   -0.1189    0.6877 H         1 <0>         0.4316
     52 H31        -1.2738   -4.3303    3.9048 H         1 <0>         0.4399
@<TRIPOS>BOND
     1    1    2 1
     2    1   24 1
     3    1   25 1
     4    1   26 1
     5    2    3 1
     6    2   27 1
     7    2   28 1
     8    3    4 1
     9    3   29 1
    10    3   51 1
    11    4    5 1
    12    4   10 1
    13    4    6 1
    14    6    7 1
    15    6   30 1
    16    6   31 1
    17    7    8 1
    18    7   22 1
    19    7   23 1
    20    8    9 1
    21    8   32 1
    22    8   33 1
    23    9   13 1
    24    9   10 2
    25   10   11 1
    26   11   12 1
    27   12   13 2
    28   12   14 1
    29   13   52 1
    30   14   15 1
    31   14   16 1
    32   15   34 1
    33   15   35 1
    34   15   36 1
    35   16   17 1
    36   16   18 1
    37   16   19 1
    38   18   37 1
    39   18   38 1
    40   18   39 1
    41   19   21 1
    42   19   20 1
    43   19   40 1
    44   20   21 1
    45   20   41 1
    46   20   42 1
    47   21   43 1
    48   21   44 1
    49   22   45 1
    50   22   46 1
    51   22   47 1
    52   23   48 1
    53   23   49 1
    54   23   50 1
@<TRIPOS>MOLECULE
ZINC63503155
   31    33     0     0     0
SMALL
USER_CHARGES

@<TRIPOS>ATOM
      1 C1         -0.0162    1.3438    0.0094 C.ar      1 <0>         0.0355
      2 C2          1.1577    2.1180    0.0024 C.ar      1 <0>         0.0344
      3 C3          2.3894    1.5703   -0.0128 C.ar      1 <0>        -0.1370
      4 C4          2.5325    0.1079   -0.0220 C.ar      1 <0>         0.3103
      5 N1          3.5686   -0.6799   -0.0365 N.pl3     1 <0>        -0.4625
      6 C5          3.0715   -2.0615   -0.0390 C.3       1 <0>         0.2165
      7 N2          1.6058   -1.9743   -0.0240 N.pl3     1 <0>        -0.4641
      8 C6          1.2899   -0.7116   -0.0141 C.ar      1 <0>         0.3108
      9 C7          0.0021   -0.0041    0.0020 C.ar      1 <0>        -0.1377
     10 S1          3.6287   -2.9211   -1.5361 S.3       1 <0>         0.0139
     11 C8          2.9206   -1.9455   -2.8916 C.3       1 <0>        -0.0894
     12 C9          3.3126   -2.5597   -4.2107 C.ar      1 <0>        -0.1063
     13 C10         4.4798   -2.1646   -4.8373 C.ar      1 <0>        -0.0834
     14 C11         4.8396   -2.7278   -6.0472 C.ar      1 <0>        -0.0799
     15 C12         4.0318   -3.6865   -6.6309 C.ar      1 <0>        -0.0702
     16 C13         2.8642   -4.0815   -6.0039 C.ar      1 <0>        -0.0798
     17 C14         2.5078   -3.5221   -4.7912 C.ar      1 <0>        -0.0833
     18 I1          4.5764   -4.5399   -8.4651 I         1 <0>         0.0030
     19 H1         -0.9705    1.8493    0.0259 H         1 <0>         0.2040
     20 H2          1.0690    3.1943    0.0090 H         1 <0>         0.2039
     21 H3          3.2653    2.2022   -0.0185 H         1 <0>         0.2060
     22 H4          3.4241   -2.5876    0.8482 H         1 <0>         0.2662
     23 H5         -0.9237   -0.5603    0.0082 H         1 <0>         0.2060
     24 H6          1.8342   -1.9363   -2.8036 H         1 <0>         0.1114
     25 H7          3.2979   -0.9242   -2.8399 H         1 <0>         0.1112
     26 H8          5.1104   -1.4156   -4.3815 H         1 <0>         0.1366
     27 H9          5.7513   -2.4188   -6.5368 H         1 <0>         0.1458
     28 H10         2.2332   -4.8303   -6.4596 H         1 <0>         0.1459
     29 H11         1.5984   -3.8340   -4.2992 H         1 <0>         0.1368
     30 H12         4.4987   -0.4047   -0.0446 H         1 <0>         0.4975
     31 H13         0.9865   -2.7208   -0.0223 H         1 <0>         0.4976
@<TRIPOS>BOND
     1    1    9 ar
     2    1    2 ar
     3    1   19 1
     4    2    3 ar
     5    2   20 1
     6    3    4 ar
     7    3   21 1
     8    4    8 ar
     9    4    5 2
    10    5    6 1
    11    5   30 1
    12    6    7 1
    13    6   10 1
    14    6   22 1
    15    7    8 2
    16    7   31 1
    17    8    9 ar
    18    9   23 1
    19   10   11 1
    20   11   12 1
    21   11   24 1
    22   11   25 1
    23   12   17 ar
    24   12   13 ar
    25   13   14 ar
    26   13   26 1
    27   14   15 ar
    28   14   27 1
    29   15   16 ar
    30   15   18 1
    31   16   17 ar
    32   16   28 1
    33   17   29 1
@<TRIPOS>MOLECULE
ZINC06576945
   55    57     0     0     0
SMALL
USER_CHARGES
7-amino-9,9-bis(ethylsulfanyl)-2,3-dimethyl-5-phenyl-4,8-diazabicyclo[4.3.0]nona-2,7-diene-1,6-dicarbonitrile
@<TRIPOS>ATOM
      1 C1          7.2544   -3.0331   -4.8042 C.3       1 <0>        -0.1448
      2 C2          6.0403   -2.1050   -4.8781 C.3       1 <0>        -0.1265
      3 S1          6.3215   -0.6563   -3.8232 S.3       1 <0>        -0.1087
      4 C3          4.7563    0.2570   -3.9055 C.3       1 <0>         0.1397
      5 C4          4.3454    0.7539   -2.5179 C.3       1 <0>         0.1113
      6 C5          5.4487    1.0106   -1.5321 C.2       1 <0>        -0.0070
      7 C6          5.0540    0.9197   -0.2532 C.2       1 <0>        -0.0563
      8 C7          2.8621   -0.1836   -0.7938 C.3       1 <0>         0.1253
      9 H1          2.5413   -1.0795   -0.2622 H         1 <0>         0.1900
     10 C8          3.6843   -0.5662   -2.0015 C.3       1 <0>         0.0504
     11 C9          3.0153   -1.0942   -3.2216 C.cat     1 <0>         0.5573
     12 N1          1.9200   -1.9172   -3.2358 N.pl3     1 <0>        -0.7348
     13 C10         4.7495   -1.4952   -1.5904 C.1       1 <0>         0.1322
     14 N2          5.5716   -2.2122   -1.2731 N.1       1 <0>        -0.2373
     15 C11         1.6607    0.6194   -1.2216 C.ar      1 <0>        -0.1874
     16 C12         0.6778    0.0331   -1.9968 C.ar      1 <0>        -0.1227
     17 C13        -0.4246    0.7694   -2.3884 C.ar      1 <0>        -0.0905
     18 C14        -0.5440    2.0922   -2.0051 C.ar      1 <0>        -0.0675
     19 C15         0.4389    2.6785   -1.2298 C.ar      1 <0>        -0.0601
     20 C16         1.5413    1.9422   -0.8382 C.ar      1 <0>        -0.1124
     21 C17         6.0598    1.1307    0.8490 C.3       1 <0>        -0.1331
     22 C18         6.8621    1.3377   -1.9399 C.3       1 <0>        -0.1342
     23 C19         3.3903    1.8715   -2.5924 C.1       1 <0>         0.1437
     24 N3          2.6532    2.7340   -2.6499 N.1       1 <0>        -0.2567
     25 S2          4.8786    1.6403   -5.0727 S.3       1 <0>        -0.0813
     26 C20         5.3473    0.8532   -6.6384 C.3       1 <0>        -0.1150
     27 C21         5.5973    1.9303   -7.6959 C.3       1 <0>        -0.1457
     28 H2          7.0854   -3.9035   -5.4381 H         1 <0>         0.0943
     29 H3          8.1407   -2.4999   -5.1479 H         1 <0>         0.0805
     30 H4          7.4019   -3.3570   -3.7739 H         1 <0>         0.0742
     31 H5          5.1539   -2.6382   -4.5344 H         1 <0>         0.0804
     32 H6          5.8927   -1.7811   -5.9083 H         1 <0>         0.1008
     33 H7          1.6437   -2.3707   -2.4241 H         1 <0>         0.4562
     34 H8          1.4210   -2.0462   -4.0574 H         1 <0>         0.4515
     35 H9          0.7710   -1.0004   -2.2963 H         1 <0>         0.1385
     36 H10        -1.1925    0.3113   -2.9941 H         1 <0>         0.1484
     37 H11        -1.4029    2.6688   -2.3151 H         1 <0>         0.1501
     38 H12         0.3458    3.7120   -0.9305 H         1 <0>         0.1508
     39 H13         2.3091    2.4001   -0.2322 H         1 <0>         0.1197
     40 H14         6.0863    2.1863    1.1195 H         1 <0>         0.1152
     41 H15         5.7744    0.5397    1.7193 H         1 <0>         0.0991
     42 H16         7.0461    0.8188    0.5054 H         1 <0>         0.1200
     43 H17         6.8515    1.8766   -2.8873 H         1 <0>         0.1123
     44 H18         7.3268    1.9585   -1.1739 H         1 <0>         0.1186
     45 H19         7.4304    0.4145   -2.0534 H         1 <0>         0.1207
     46 H20         6.2557    0.2685   -6.4935 H         1 <0>         0.1103
     47 H21         4.5424    0.1976   -6.9708 H         1 <0>         0.0902
     48 H22         4.6888    2.5150   -7.8408 H         1 <0>         0.0737
     49 H23         6.4021    2.5859   -7.3636 H         1 <0>         0.0799
     50 H24         5.8789    1.4574   -8.6367 H         1 <0>         0.0973
     51 N4          3.7016    0.6691    0.1512 N.4       1 <0>        -0.4808
     52 H25         3.2343    1.5775    0.2546 H         1 <0>         0.4409
     53 H26         3.7317    0.1942    1.0610 H         1 <0>         0.4575
     54 N5          3.6373   -0.6491   -4.2895 N.pl3     1 <0>        -0.6009
     55 H27         3.3871   -0.8919   -5.2553 H         1 <0>         0.4726
@<TRIPOS>BOND
     1    1    2 1
     2    1   28 1
     3    1   29 1
     4    1   30 1
     5    2    3 1
     6    2   31 1
     7    2   32 1
     8    3    4 1
     9    4    5 1
    10    4   25 1
    11    4   54 1
    12    5   10 1
    13    5    6 1
    14    5   23 1
    15    6    7 2
    16    6   22 1
    17    7   21 1
    18    7   51 1
    19    8    9 1
    20    8   10 1
    21    8   15 1
    22    8   51 1
    23   10   11 1
    24   10   13 1
    25   11   12 1
    26   11   54 2
    27   12   33 1
    28   12   34 1
    29   13   14 3
    30   15   20 ar
    31   15   16 ar
    32   16   17 ar
    33   16   35 1
    34   17   18 ar
    35   17   36 1
    36   18   19 ar
    37   18   37 1
    38   19   20 ar
    39   19   38 1
    40   20   39 1
    41   21   40 1
    42   21   41 1
    43   21   42 1
    44   22   43 1
    45   22   44 1
    46   22   45 1
    47   23   24 3
    48   25   26 1
    49   26   27 1
    50   26   46 1
    51   26   47 1
    52   27   48 1
    53   27   49 1
    54   27   50 1
    55   51   52 1
    56   51   53 1
    57   54   55 1
@<TRIPOS>MOLECULE
ZINC38819022
   53    57     0     0     0
SMALL
USER_CHARGES

@<TRIPOS>ATOM
      1 C1         -0.0495    1.4913    0.0056 C.3       1 <0>        -0.1577
      2 C2         -0.0053   -0.0149   -0.0151 C.ar      1 <0>         0.0750
      3 C3          0.0450   -0.6717   -1.2575 C.ar      1 <0>         0.0258
      4 C4          0.0863   -2.0146   -1.3685 C.ar      1 <0>        -0.1350
      5 C5          0.0797   -2.8429   -0.1549 C.ar      1 <0>         0.3308
      6 N1          0.1114   -4.1298    0.0385 N.pl3     1 <0>        -0.4580
      7 C6          0.0815   -4.3582    1.4887 C.3       1 <0>         0.3616
      8 H1         -0.8030   -4.9353    1.7583 H         1 <0>         0.2112
      9 N2          0.0281   -3.0316    2.1158 N.pl3     1 <0>        -0.4709
     10 C7          0.0270   -2.1476    1.1602 C.ar      1 <0>         0.3287
     11 C8         -0.0101   -0.6787    1.1582 C.ar      1 <0>        -0.1658
     12 C9          1.3267   -5.0873    1.9233 C.2       1 <0>        -0.5389
     13 C10         1.3416   -6.3064    2.5606 C.2       1 <0>         0.5871
     14 N3          2.6151   -6.7181    2.8307 N.pl3     1 <0>        -0.4978
     15 C11         3.5307   -5.6823    2.3293 C.3       1 <0>         0.0446
     16 C12         2.6241   -4.6268    1.7320 C.2       1 <0>         0.4189
     17 O1          2.9620   -3.5872    1.1969 O.2       1 <0>        -0.4848
     18 C13         2.9823   -7.9092    3.4691 C.ar      1 <0>         0.0363
     19 C14         2.7366   -9.1304    2.8550 C.ar      1 <0>        -0.0728
     20 C15         3.0985  -10.3046    3.4842 C.ar      1 <0>        -0.1545
     21 C16         3.7085  -10.2647    4.7316 C.ar      1 <0>         0.2253
     22 C17         3.9541   -9.0432    5.3456 C.ar      1 <0>        -0.1499
     23 C18         3.5972   -7.8689    4.7137 C.ar      1 <0>        -0.0587
     24 N4          4.0749  -11.4548    5.3696 N.pl3     1 <0>        -0.6787
     25 C19         4.0453  -11.5377    6.7638 C.ar      1 <0>         0.1611
     26 C20         3.1992  -10.7110    7.4925 C.ar      1 <0>        -0.1676
     27 C21         3.1721  -10.7959    8.8706 C.ar      1 <0>        -0.0868
     28 C22         3.9861  -11.7022    9.5253 C.ar      1 <0>        -0.1403
     29 C23         4.8295  -12.5265    8.8030 C.ar      1 <0>        -0.0802
     30 C24         4.8575  -12.4509    7.4244 C.ar      1 <0>        -0.1561
     31 N5          0.2185   -7.0184    2.8844 N.pl3     1 <0>        -0.8115
     32 H2          0.9668    1.8843    0.0317 H         1 <0>         0.1265
     33 H3         -0.5558    1.8523   -0.8896 H         1 <0>         0.1106
     34 H4         -0.5916    1.8267    0.8898 H         1 <0>         0.1072
     35 H5          0.0504   -0.0766   -2.1587 H         1 <0>         0.1993
     36 H6          0.1235   -2.4785   -2.3431 H         1 <0>         0.2031
     37 H7         -0.0450   -0.1345    2.0904 H         1 <0>         0.1992
     38 H8          4.1176   -5.2654    3.1478 H         1 <0>         0.1367
     39 H9          4.1861   -6.0938    1.5617 H         1 <0>         0.1363
     40 H10         2.2620   -9.1614    1.8853 H         1 <0>         0.1314
     41 H11         2.9071  -11.2543    3.0068 H         1 <0>         0.1426
     42 H12         4.4283   -9.0120    6.3155 H         1 <0>         0.1455
     43 H13         3.7926   -6.9189    5.1890 H         1 <0>         0.1349
     44 H14         4.3496  -12.2223    4.8439 H         1 <0>         0.4181
     45 H15         2.5638  -10.0026    6.9819 H         1 <0>         0.1209
     46 H16         2.5147  -10.1537    9.4378 H         1 <0>         0.1272
     47 H17         3.9634  -11.7660   10.6032 H         1 <0>         0.1289
     48 H18         5.4641  -13.2329    9.3175 H         1 <0>         0.1323
     49 H19         5.5131  -13.0981    6.8607 H         1 <0>         0.1282
     50 H20        -0.6595   -6.6359    2.7303 H         1 <0>         0.4226
     51 H21         0.3005   -7.9056    3.2680 H         1 <0>         0.4312
     52 H22         0.1478   -4.8127   -0.6493 H         1 <0>         0.4886
     53 H23        -0.0011   -2.8476    3.0677 H         1 <0>         0.4882
@<TRIPOS>BOND
     1    1    2 1
     2    1   32 1
     3    1   33 1
     4    1   34 1
     5    2   11 ar
     6    2    3 ar
     7    3    4 ar
     8    3   35 1
     9    4    5 ar
    10    4   36 1
    11    5   10 ar
    12    5    6 2
    13    6    7 1
    14    6   52 1
    15    7    8 1
    16    7    9 1
    17    7   12 1
    18    9   10 2
    19    9   53 1
    20   10   11 ar
    21   11   37 1
    22   12   16 1
    23   12   13 2
    24   13   14 1
    25   13   31 1
    26   14   15 1
    27   14   18 1
    28   15   16 1
    29   15   38 1
    30   15   39 1
    31   16   17 2
    32   18   23 ar
    33   18   19 ar
    34   19   20 ar
    35   19   40 1
    36   20   21 ar
    37   20   41 1
    38   21   22 ar
    39   21   24 1
    40   22   23 ar
    41   22   42 1
    42   23   43 1
    43   24   25 1
    44   24   44 1
    45   25   30 ar
    46   25   26 ar
    47   26   27 ar
    48   26   45 1
    49   27   28 ar
    50   27   46 1
    51   28   29 ar
    52   28   47 1
    53   29   30 ar
    54   29   48 1
    55   30   49 1
    56   31   50 1
    57   31   51 1
@<TRIPOS>MOLECULE
ZINC39689144
   75    79     0     0     0
SMALL
USER_CHARGES

@<TRIPOS>ATOM
      1 C1         -3.9550    1.4451   -9.4417 C.3       1 <0>        -0.1315
      2 C2         -3.4656    2.5495   -8.4722 C.3       1 <0>        -0.1259
      3 C3         -2.5571    1.7661   -7.4924 C.3       1 <0>        -0.1430
      4 C4         -3.2845    0.4199   -7.2963 C.3       1 <0>         0.0192
      5 C5         -4.1733    0.2158   -8.5356 C.3       1 <0>        -0.1420
      6 N1         -2.3057   -0.6707   -7.1939 N.4       1 <0>        -0.3797
      7 C6         -1.4166   -0.4228   -6.0526 C.3       1 <0>        -0.0092
      8 C7         -0.3448   -1.5131   -5.9898 C.3       1 <0>        -0.1399
      9 C8         -1.0211   -2.8771   -5.8251 C.3       1 <0>        -0.1143
     10 C9         -2.0014   -3.0929   -6.9817 C.3       1 <0>        -0.1407
     11 C10        -3.0118   -1.9440   -7.0077 C.3       1 <0>        -0.0113
     12 C11         0.0398   -3.9795   -5.8412 C.3       1 <0>         0.1212
     13 N2         -0.5937   -5.2711   -5.5646 N.am      1 <0>        -0.7349
     14 C12         0.1517   -6.3933   -5.5284 C.2       1 <0>         0.5224
     15 O1          1.3471   -6.3339   -5.7247 O.2       1 <0>        -0.5092
     16 C13        -0.5000   -7.7220   -5.2439 C.3       1 <0>        -0.1140
     17 H1         -1.3796   -7.5854   -4.6148 H         1 <0>         0.1119
     18 C14         0.5043   -8.6792   -4.5639 C.3       1 <0>         0.1116
     19 N3          0.1987  -10.0112   -5.1369 N.am      1 <0>        -0.6245
     20 C15        -0.0871   -9.7409   -6.5663 C.3       1 <0>         0.1046
     21 C16        -0.8850   -8.4219   -6.5581 C.3       1 <0>        -0.0727
     22 C17        -0.4890   -7.5588   -7.7522 C.3       1 <0>        -0.1432
     23 C18        -0.9344   -8.2484   -9.0448 C.3       1 <0>        -0.0095
     24 N4         -2.3886   -8.4469   -9.0198 N.4       1 <0>        -0.5036
     25 C19        -2.7514   -9.3535   -7.9238 C.3       1 <0>        -0.0132
     26 C20        -2.3829   -8.7106   -6.5837 C.3       1 <0>        -0.1314
     27 C21         0.1834  -11.1999   -4.5019 C.2       1 <0>         0.5502
     28 O2         -0.0880  -12.2111   -5.1141 O.2       1 <0>        -0.5230
     29 C22         0.5036  -11.2727   -3.0311 C.3       1 <0>        -0.1374
     30 C23         2.0113  -11.2996   -2.7294 C.3       1 <0>        -0.1228
     31 C24         1.6949  -12.3376   -1.6398 C.3       1 <0>        -0.1430
     32 C25         0.4432  -12.6981   -2.4572 C.3       1 <0>        -0.1188
     33 H2         -4.8911    1.7409   -9.9155 H         1 <0>         0.0890
     34 H3         -3.1954    1.2342  -10.1944 H         1 <0>         0.0774
     35 H4         -2.8935    3.3075   -9.0072 H         1 <0>         0.0908
     36 H5         -4.3059    2.9997   -7.9437 H         1 <0>         0.0852
     37 H6         -1.5717    1.6070   -7.9303 H         1 <0>         0.0869
     38 H7         -2.4729    2.2960   -6.5436 H         1 <0>         0.0996
     39 H8         -3.8998    0.4555   -6.3973 H         1 <0>         0.1407
     40 H9         -5.2200    0.1524   -8.2381 H         1 <0>         0.1029
     41 H10        -3.8784   -0.6924   -9.0612 H         1 <0>         0.0807
     42 H11        -0.9385    0.5498   -6.1697 H         1 <0>         0.1368
     43 H12        -1.9982   -0.4321   -5.1308 H         1 <0>         0.1312
     44 H13         0.2376   -1.5045   -6.9112 H         1 <0>         0.0932
     45 H14         0.3132   -1.3281   -5.1408 H         1 <0>         0.1198
     46 H15        -1.5619   -2.9040   -4.8791 H         1 <0>         0.0997
     47 H16        -1.4533   -3.1171   -7.9236 H         1 <0>         0.0905
     48 H17        -2.5274   -4.0372   -6.8416 H         1 <0>         0.1039
     49 H18        -3.5594   -1.9209   -6.0656 H         1 <0>         0.1303
     50 H19        -3.7114   -2.0946   -7.8299 H         1 <0>         0.1316
     51 H20         0.5163   -4.0109   -6.8211 H         1 <0>         0.0776
     52 H21         0.7906   -3.7723   -5.0787 H         1 <0>         0.0843
     53 H22        -1.5498   -5.3186   -5.4076 H         1 <0>         0.3996
     54 H23         1.5274   -8.3886   -4.8024 H         1 <0>         0.0998
     55 H24         0.3520   -8.6858   -3.4846 H         1 <0>         0.0949
     56 H25         0.8418   -9.6212   -7.1239 H         1 <0>         0.0839
     57 H26        -0.6870  -10.5447   -6.9930 H         1 <0>         0.0897
     58 H27        -0.9728   -6.5852   -7.6738 H         1 <0>         0.0908
     59 H28         0.5931   -7.4282   -7.7637 H         1 <0>         0.1255
     60 H29        -0.6676   -7.6261   -9.8989 H         1 <0>         0.1390
     61 H30        -0.4375   -9.2148   -9.1306 H         1 <0>         0.1363
     62 H31        -2.8458   -7.5577   -8.8843 H         1 <0>         0.4231
     63 H32        -3.8239   -9.5458   -7.9515 H         1 <0>         0.1417
     64 H33        -2.2112  -10.2935   -8.0362 H         1 <0>         0.1368
     65 H34        -2.6361   -9.3919   -5.7715 H         1 <0>         0.1197
     66 H35        -2.9352   -7.7787   -6.4632 H         1 <0>         0.0924
     67 H36        -0.0481  -10.5407   -2.4411 H         1 <0>         0.1131
     68 H37         2.6132  -11.6950   -3.5475 H         1 <0>         0.0861
     69 H38         2.3949  -10.3578   -2.3370 H         1 <0>         0.0768
     70 H39         2.4250  -13.1447   -1.5804 H         1 <0>         0.0792
     71 H40         1.4701  -11.8965   -0.6687 H         1 <0>         0.0875
     72 H41        -0.4391  -12.8854   -1.8451 H         1 <0>         0.0763
     73 H42         0.6165  -13.4759   -3.2010 H         1 <0>         0.0965
     74 H43        -1.7590   -0.7112   -8.0410 H         1 <0>         0.4201
     75 H44        -2.6875   -8.8456   -9.8972 H         1 <0>         0.4368
@<TRIPOS>BOND
     1    1    5 1
     2    1    2 1
     3    1   33 1
     4    1   34 1
     5    2    3 1
     6    2   35 1
     7    2   36 1
     8    3    4 1
     9    3   37 1
    10    3   38 1
    11    4    5 1
    12    4    6 1
    13    4   39 1
    14    5   40 1
    15    5   41 1
    16    6   11 1
    17    6    7 1
    18    6   74 1
    19    7    8 1
    20    7   42 1
    21    7   43 1
    22    8    9 1
    23    8   44 1
    24    8   45 1
    25    9   10 1
    26    9   12 1
    27    9   46 1
    28   10   11 1
    29   10   47 1
    30   10   48 1
    31   11   49 1
    32   11   50 1
    33   12   13 1
    34   12   51 1
    35   12   52 1
    36   13   14 am
    37   13   53 1
    38   14   15 2
    39   14   16 1
    40   16   17 1
    41   16   21 1
    42   16   18 1
    43   18   19 1
    44   18   54 1
    45   18   55 1
    46   19   20 1
    47   19   27 am
    48   20   21 1
    49   20   56 1
    50   20   57 1
    51   21   26 1
    52   21   22 1
    53   22   23 1
    54   22   58 1
    55   22   59 1
    56   23   24 1
    57   23   60 1
    58   23   61 1
    59   24   25 1
    60   24   62 1
    61   24   75 1
    62   25   26 1
    63   25   63 1
    64   25   64 1
    65   26   65 1
    66   26   66 1
    67   27   28 2
    68   27   29 1
    69   29   32 1
    70   29   30 1
    71   29   67 1
    72   30   31 1
    73   30   68 1
    74   30   69 1
    75   31   32 1
    76   31   70 1
    77   31   71 1
    78   32   72 1
    79   32   73 1
@<TRIPOS>MOLECULE
ZINC38979427
   38    41     0     0     0
SMALL
USER_CHARGES

@<TRIPOS>ATOM
      1 C1         -0.0168    1.3853    0.0097 C.ar      1 <0>        -0.1577
      2 C2          1.1645    2.0951    0.0022 C.ar      1 <0>        -0.0359
      3 C3          2.3857    1.4168   -0.0131 C.ar      1 <0>        -0.1309
      4 C4          2.4023    0.0141   -0.0207 C.ar      1 <0>         0.1767
      5 C5          1.2099   -0.6872   -0.0131 C.ar      1 <0>        -0.1863
      6 C6          0.0021   -0.0041    0.0020 C.ar      1 <0>         0.1747
      7 O1         -1.1666   -0.6965    0.0099 O.3       1 <0>        -0.4931
      8 O2          3.5851   -0.6531   -0.0360 O.3       1 <0>        -0.4740
      9 C7          3.6507    2.1713   -0.0216 C.2       1 <0>         0.1862
     10 N1          4.7845    1.5380   -0.0358 N.2       1 <0>        -0.2289
     11 N2          5.9877    2.2557   -0.0439 N.pl3     1 <0>        -0.5232
     12 C8          7.1922    1.5829   -0.0589 C.2       1 <0>         0.5787
     13 N3          7.1677    0.2711   -0.0706 N.2       1 <0>        -0.4802
     14 C9          8.4450   -0.4316   -0.1668 C.3       1 <0>         0.2554
     15 H1          8.6935   -0.6027   -1.2142 H         1 <0>         0.2183
     16 C10         9.4848    0.4820    0.4662 C.2       1 <0>        -0.0963
     17 C11        10.1814   -0.3033    1.3344 C.ar      1 <0>         0.1513
     18 C12        11.3279   -0.0582    2.1286 C.ar      1 <0>        -0.1054
     19 C13        11.7726   -1.0746    2.9169 C.ar      1 <0>         0.0598
     20 C14        11.1696   -2.3354    2.9891 C.ar      1 <0>        -0.0203
     21 C15        10.0710   -2.6827    2.2678 C.ar      1 <0>        -0.0723
     22 C16         9.5228   -1.6454    1.3779 C.ar      1 <0>         0.3273
     23 N4          8.5107   -1.6877    0.5664 N.pl3     1 <0>        -0.4183
     24 Br1        13.3029   -0.7631    3.9832 Br        1 <0>         0.1130
     25 N5          9.4868    1.7971    0.2302 N.2       1 <0>         0.1092
     26 N6          8.3322    2.3148   -0.0663 N.pl3     1 <0>        -0.3173
     27 H2         -0.9602    1.9107    0.0260 H         1 <0>         0.1485
     28 H3          1.1461    3.1749    0.0078 H         1 <0>         0.1460
     29 H4          1.2190   -1.7671   -0.0193 H         1 <0>         0.1456
     30 H5         -1.5138   -0.8922   -0.8712 H         1 <0>         0.4083
     31 H6          3.9364   -0.8511    0.8429 H         1 <0>         0.3892
     32 H7          3.6353    3.2512   -0.0160 H         1 <0>         0.1403
     33 H8          5.9739    3.2256   -0.0389 H         1 <0>         0.4093
     34 H9         11.8299    0.8979    2.1092 H         1 <0>         0.2093
     35 H10        11.5994   -3.0710    3.6529 H         1 <0>         0.2043
     36 H11         9.6259   -3.6638    2.3426 H         1 <0>         0.2192
     37 H12         8.2839    3.2557   -0.2970 H         1 <0>         0.4846
     38 H13         7.8984   -2.4333    0.4655 H         1 <0>         0.4848
@<TRIPOS>BOND
     1    1    6 ar
     2    1    2 ar
     3    1   27 1
     4    2    3 ar
     5    2   28 1
     6    3    4 ar
     7    3    9 1
     8    4    5 ar
     9    4    8 1
    10    5    6 ar
    11    5   29 1
    12    6    7 1
    13    7   30 1
    14    8   31 1
    15    9   10 2
    16    9   32 1
    17   10   11 1
    18   11   12 1
    19   11   33 1
    20   12   26 1
    21   12   13 2
    22   13   14 1
    23   14   15 1
    24   14   23 1
    25   14   16 1
    26   16   17 2
    27   16   25 1
    28   17   22 ar
    29   17   18 ar
    30   18   19 ar
    31   18   34 1
    32   19   20 ar
    33   19   24 1
    34   20   21 ar
    35   20   35 1
    36   21   22 ar
    37   21   36 1
    38   22   23 2
    39   23   38 1
    40   25   26 2
    41   26   37 1
@<TRIPOS>MOLECULE
ZINC64746352
   62    66     0     0     0
SMALL
USER_CHARGES

@<TRIPOS>ATOM
      1 C1          0.0684    1.5489    0.1494 C.3       1 <0>        -0.1619
      2 C2          0.0770    0.0421    0.1235 C.ar      1 <0>         0.0882
      3 C3          0.0727   -0.6117   -1.1214 C.ar      1 <0>         0.0327
      4 C4          0.0793   -1.9548   -1.2370 C.ar      1 <0>        -0.1341
      5 C5          0.0920   -2.7866   -0.0258 C.ar      1 <0>         0.3277
      6 N1          0.1000   -4.0745    0.1634 N.pl3     1 <0>        -0.4678
      7 C6          0.1107   -4.3068    1.6132 C.3       1 <0>         0.2572
      8 H1         -0.7779   -4.8642    1.9093 H         1 <0>         0.2412
      9 N2          0.1079   -2.9813    2.2449 N.pl3     1 <0>        -0.4813
     10 C7          0.0971   -2.0945    1.2920 C.ar      1 <0>         0.3236
     11 C8          0.0940   -0.6251    1.2948 C.ar      1 <0>        -0.1683
     12 C9          1.3707   -5.0774    2.0123 C.3       1 <0>        -0.1567
     13 C10         1.3776   -6.4395    1.3155 C.3       1 <0>         0.1127
     14 N3          2.5841   -7.1775    1.6977 N.am      1 <0>        -0.7340
     15 C11         2.8047   -8.4112    1.2021 C.2       1 <0>         0.4961
     16 O1          2.0045   -8.9105    0.4397 O.2       1 <0>        -0.4865
     17 C12         4.0459   -9.1703    1.5951 C.3       1 <0>         0.2690
     18 H2          4.1567   -9.1811    2.6794 H         1 <0>         0.1216
     19 N4          5.2337   -8.5745    0.9635 N.pl3     1 <0>        -0.7523
     20 C13         5.7879   -9.5499    0.1543 C.2       1 <0>         0.3836
     21 N5          5.1040  -10.6465    0.2086 N.2       1 <0>        -0.3361
     22 O2          3.9966  -10.5108    1.0831 O.3       1 <0>        -0.1681
     23 C14         7.0039   -9.3630   -0.6665 C.ar      1 <0>        -0.1341
     24 C15         7.6756   -8.1394   -0.6527 C.ar      1 <0>        -0.0319
     25 C16         8.8079   -7.9681   -1.4183 C.ar      1 <0>        -0.2084
     26 C17         9.2821   -9.0130   -2.2045 C.ar      1 <0>         0.2580
     27 C18         8.6144  -10.2331   -2.2204 C.ar      1 <0>        -0.2037
     28 C19         7.4852  -10.4119   -1.4520 C.ar      1 <0>        -0.0080
     29 N6         10.4278   -8.8369   -2.9780 N.pl3     1 <0>        -0.6142
     30 C20        11.0111   -9.9635   -3.7191 C.3       1 <0>         0.1111
     31 C21        11.1629   -9.5608   -5.1893 C.3       1 <0>        -0.1377
     32 C22        11.9711   -8.2643   -5.2782 C.3       1 <0>        -0.1231
     33 C23        11.2266   -7.1458   -4.5454 C.3       1 <0>        -0.1367
     34 C24        11.0720   -7.5198   -3.0728 C.3       1 <0>         0.1146
     35 H3          1.0939    1.9182    0.1441 H         1 <0>         0.1321
     36 H4         -0.4574    1.9243   -0.7285 H         1 <0>         0.1151
     37 H5         -0.4374    1.8939    1.0511 H         1 <0>         0.1116
     38 H6          0.0634   -0.0140   -2.0209 H         1 <0>         0.2047
     39 H7          0.0749   -2.4164   -2.2134 H         1 <0>         0.2084
     40 H8          0.1012   -0.0832    2.2290 H         1 <0>         0.2044
     41 H9          2.2529   -4.5116    1.7126 H         1 <0>         0.1211
     42 H10         1.3814   -5.2218    3.0926 H         1 <0>         0.1535
     43 H11         0.4954   -7.0054    1.6152 H         1 <0>         0.0987
     44 H12         1.3669   -6.2951    0.2352 H         1 <0>         0.0712
     45 H13         3.2241   -6.7781    2.3074 H         1 <0>         0.4090
     46 H14         5.5642   -7.6714    1.0898 H         1 <0>         0.4255
     47 H15         7.3076   -7.3277   -0.0427 H         1 <0>         0.1167
     48 H16         9.3278   -7.0215   -1.4083 H         1 <0>         0.1316
     49 H17         8.9845  -11.0427   -2.8321 H         1 <0>         0.1367
     50 H18         6.9699  -11.3610   -1.4611 H         1 <0>         0.1382
     51 H19        11.9892  -10.2067   -3.3040 H         1 <0>         0.0716
     52 H20        10.3541  -10.8300   -3.6435 H         1 <0>         0.0883
     53 H21        11.6824  -10.3512   -5.7313 H         1 <0>         0.0797
     54 H22        10.1771   -9.4058   -5.6277 H         1 <0>         0.0671
     55 H23        12.9477   -8.4128   -4.8175 H         1 <0>         0.0670
     56 H24        12.1016   -7.9887   -6.3246 H         1 <0>         0.0693
     57 H25        11.7913   -6.2173   -4.6290 H         1 <0>         0.0775
     58 H26        10.2401   -7.0135   -4.9899 H         1 <0>         0.0655
     59 H27        10.4551   -6.7744   -2.5708 H         1 <0>         0.0829
     60 H28        12.0552   -7.5593   -2.6038 H         1 <0>         0.0695
     61 H29         0.0987   -4.7559   -0.5270 H         1 <0>         0.4954
     62 H30         0.1132   -2.7997    3.1977 H         1 <0>         0.4953
@<TRIPOS>BOND
     1    1    2 1
     2    1   35 1
     3    1   36 1
     4    1   37 1
     5    2   11 ar
     6    2    3 ar
     7    3    4 ar
     8    3   38 1
     9    4    5 ar
    10    4   39 1
    11    5   10 ar
    12    5    6 2
    13    6    7 1
    14    6   61 1
    15    7    8 1
    16    7    9 1
    17    7   12 1
    18    9   10 2
    19    9   62 1
    20   10   11 ar
    21   11   40 1
    22   12   13 1
    23   12   41 1
    24   12   42 1
    25   13   14 1
    26   13   43 1
    27   13   44 1
    28   14   15 am
    29   14   45 1
    30   15   16 2
    31   15   17 1
    32   17   18 1
    33   17   22 1
    34   17   19 1
    35   19   20 1
    36   19   46 1
    37   20   21 2
    38   20   23 1
    39   21   22 1
    40   23   28 ar
    41   23   24 ar
    42   24   25 ar
    43   24   47 1
    44   25   26 ar
    45   25   48 1
    46   26   27 ar
    47   26   29 1
    48   27   28 ar
    49   27   49 1
    50   28   50 1
    51   29   34 1
    52   29   30 1
    53   30   31 1
    54   30   51 1
    55   30   52 1
    56   31   32 1
    57   31   53 1
    58   31   54 1
    59   32   33 1
    60   32   55 1
    61   32   56 1
    62   33   34 1
    63   33   57 1
    64   33   58 1
    65   34   59 1
    66   34   60 1
@<TRIPOS>MOLECULE
ZINC03085640
   50    51     0     0     0
SMALL
USER_CHARGES
2-[[3-cyano-4-(methoxymethyl)-6-methyl-1,2-dihydropyridin-2-yl]disulfanyl]-4-(methoxymethyl)-6-methyl-1,2-dihydropyridine-3-carbonitrile
@<TRIPOS>ATOM
      1 C1         -4.1975    0.9624    4.9564 C.3       1 <0>        -0.1296
      2 C2         -3.9390    2.2722    5.6555 C.2       1 <0>        -0.0293
      3 C3         -4.8591    2.7908    6.4986 C.2       1 <0>        -0.0356
      4 C4         -4.6288    4.0327    7.1213 C.2       1 <0>         0.0554
      5 C5         -3.6226    4.8404    6.6942 C.2       1 <0>        -0.0597
      6 C6         -2.7775    4.4216    5.5154 C.3       1 <0>         0.0779
      7 H1         -1.7599    4.7909    5.6426 H         1 <0>         0.1860
      8 S1         -3.4843    5.0996    3.9886 S.3       1 <0>        -0.0216
      9 S2         -2.1391    4.5622    2.5380 S.3       1 <0>        -0.0219
     10 C7         -0.8989    5.8855    2.5776 C.3       1 <0>         0.0775
     11 H2         -0.5100    5.9949    3.5900 H         1 <0>         0.1860
     12 C8          0.2310    5.5489    1.6346 C.2       1 <0>        -0.0597
     13 C9          0.1908    5.9935    0.3511 C.2       1 <0>         0.0555
     14 C10        -0.8722    6.8054   -0.0893 C.2       1 <0>        -0.0365
     15 C11        -1.7242    7.3546    0.8030 C.2       1 <0>        -0.0284
     16 C12        -2.8892    8.1875    0.3336 C.3       1 <0>        -0.1297
     17 C13         1.2940    5.6205   -0.6054 C.3       1 <0>         0.0730
     18 O1          0.7407    4.9184   -1.7203 O.3       1 <0>        -0.3790
     19 C14         1.7080    4.5169   -2.6925 C.3       1 <0>         0.0264
     20 C15         1.3392    4.7647    2.0903 C.1       1 <0>         0.2172
     21 N1          2.2184    4.1427    2.4517 N.1       1 <0>        -0.3222
     22 C16        -3.3648    6.0820    7.3596 C.1       1 <0>         0.2171
     23 N2         -3.1603    7.0669    7.8875 N.1       1 <0>        -0.3221
     24 C17        -5.5035    4.4688    8.2683 C.3       1 <0>         0.0731
     25 O2         -6.8669    4.5019    7.8418 O.3       1 <0>        -0.3791
     26 C18        -7.7848    4.9053    8.8601 C.3       1 <0>         0.0264
     27 H3         -3.9075    0.1388    5.6088 H         1 <0>         0.1150
     28 H4         -5.2580    0.8810    4.7179 H         1 <0>         0.1223
     29 H5         -3.6141    0.9201    4.0366 H         1 <0>         0.0906
     30 H6         -5.7736    2.2512    6.6956 H         1 <0>         0.1983
     31 H7         -1.0097    6.9866   -1.1451 H         1 <0>         0.1980
     32 H8         -2.5600    9.2138    0.1712 H         1 <0>         0.1150
     33 H9         -3.2759    7.7780   -0.5996 H         1 <0>         0.1223
     34 H10        -3.6742    8.1730    1.0897 H         1 <0>         0.0908
     35 H11         2.0160    4.9823   -0.0961 H         1 <0>         0.0753
     36 H12         1.7919    6.5245   -0.9561 H         1 <0>         0.0999
     37 H13         2.4386    3.8558   -2.2265 H         1 <0>         0.0528
     38 H14         1.2086    3.9907   -3.5060 H         1 <0>         0.1057
     39 H15         2.2145    5.3980   -3.0864 H         1 <0>         0.0570
     40 H16        -5.3980    3.7648    9.0938 H         1 <0>         0.1001
     41 H17        -5.2016    5.4630    8.5979 H         1 <0>         0.0756
     42 H18        -7.7266    4.2103    9.6978 H         1 <0>         0.0570
     43 H19        -7.5303    5.9085    9.2019 H         1 <0>         0.0528
     44 H20        -8.7976    4.9047    8.4572 H         1 <0>         0.1057
     45 N3         -2.7103    2.9223    5.4302 N.4       1 <0>        -0.4652
     46 H21        -2.3805    2.6668    4.4920 H         1 <0>         0.4393
     47 H22        -2.0387    2.5890    6.1317 H         1 <0>         0.4500
     48 N4         -1.5290    7.1935    2.1884 N.4       1 <0>        -0.4651
     49 H23        -0.9225    7.9542    2.5166 H         1 <0>         0.4500
     50 H24        -2.4435    7.2613    2.6503 H         1 <0>         0.4395
@<TRIPOS>BOND
     1    1    2 1
     2    1   27 1
     3    1   28 1
     4    1   29 1
     5    2    3 2
     6    2   45 1
     7    3    4 1
     8    3   30 1
     9    4    5 2
    10    4   24 1
    11    5    6 1
    12    5   22 1
    13    6    7 1
    14    6    8 1
    15    6   45 1
    16    8    9 1
    17    9   10 1
    18   10   11 1
    19   10   12 1
    20   10   48 1
    21   12   13 2
    22   12   20 1
    23   13   14 1
    24   13   17 1
    25   14   15 2
    26   14   31 1
    27   15   16 1
    28   15   48 1
    29   16   32 1
    30   16   33 1
    31   16   34 1
    32   17   18 1
    33   17   35 1
    34   17   36 1
    35   18   19 1
    36   19   37 1
    37   19   38 1
    38   19   39 1
    39   20   21 3
    40   22   23 3
    41   24   25 1
    42   24   40 1
    43   24   41 1
    44   25   26 1
    45   26   42 1
    46   26   43 1
    47   26   44 1
    48   45   46 1
    49   45   47 1
    50   48   49 1
    51   48   50 1
@<TRIPOS>MOLECULE
ZINC36329567
   56    60     0     0     0
SMALL
USER_CHARGES

@<TRIPOS>ATOM
      1 C1         -0.0184    1.5028    0.0103 C.3       1 <0>        -0.1268
      2 C2          0.0021   -0.0041    0.0020 C.ar      1 <0>        -0.0634
      3 C3          0.0057   -0.6887   -1.1989 C.ar      1 <0>        -0.1111
      4 C4          0.0245   -2.0709   -1.2065 C.ar      1 <0>        -0.1155
      5 C5          0.0400   -2.7685   -0.0132 C.ar      1 <0>        -0.1158
      6 C6          0.0373   -2.0839    1.1877 C.ar      1 <0>        -0.0958
      7 C7          0.0229   -0.7016    1.1953 C.ar      1 <0>        -0.1110
      8 C8          0.0595   -4.2753   -0.0215 C.3       1 <0>         0.0628
      9 H1          0.0584   -4.6301   -1.0521 H         1 <0>         0.1107
     10 C9         -1.1651   -4.7927    0.6841 C.ar      1 <0>        -0.1428
     11 C10        -2.3869   -4.7690    0.0353 C.ar      1 <0>        -0.0552
     12 C11        -3.5201   -5.2400    0.6683 C.ar      1 <0>        -0.1340
     13 C12        -3.4356   -5.7394    1.9604 C.ar      1 <0>         0.1588
     14 C13        -2.2137   -5.7644    2.6125 C.ar      1 <0>        -0.1325
     15 C14        -1.0745   -5.2897    1.9748 C.ar      1 <0>         0.1038
     16 O1          0.1123   -5.3185    2.6264 O.3       1 <0>        -0.1947
     17 C15         1.2704   -5.2499    1.9352 C.2       1 <0>         0.4551
     18 C16         1.3024   -4.7599    0.6694 C.2       1 <0>        -0.2826
     19 C17         2.5442   -4.7084   -0.0065 C.cat     1 <0>         0.5366
     20 N1          2.6251   -4.2440   -1.2363 N.pl3     1 <0>        -0.7548
     21 N2          3.6693   -5.1581    0.6564 N.pl3     1 <0>        -0.5090
     22 C18         3.5498   -5.6324    1.9219 C.2       1 <0>         0.4366
     23 N3          2.4071   -5.6738    2.5199 N.2       1 <0>        -0.4971
     24 C19         4.9784   -5.1237   -0.0004 C.3       1 <0>         0.0719
     25 C20         5.6593   -3.7845    0.2891 C.3       1 <0>        -0.1744
     26 C21         7.0264   -3.7486   -0.3969 C.3       1 <0>         0.0984
     27 N4          7.6784   -2.4663   -0.1196 N.pl3     1 <0>        -0.4182
     28 C22         7.5713   -1.3229   -0.8645 C.2       1 <0>         0.0201
     29 C23         8.3272   -0.3892   -0.2559 C.2       1 <0>         0.0150
     30 N5          8.8808   -0.9473    0.8309 N.pl3     1 <0>        -0.4712
     31 C24         8.4925   -2.1899    0.9217 C.cat     1 <0>         0.2947
     32 O2         -4.5500   -6.2029    2.5851 O.3       1 <0>        -0.4848
     33 H2          1.0042    1.8801    0.0026 H         1 <0>         0.0750
     34 H3         -0.5455    1.8639   -0.8728 H         1 <0>         0.0757
     35 H4         -0.5286    1.8543    0.9071 H         1 <0>         0.0747
     36 H5         -0.0064   -0.1436   -2.1312 H         1 <0>         0.1325
     37 H6          0.0266   -2.6057   -2.1448 H         1 <0>         0.1257
     38 H7          0.0491   -2.6289    2.1200 H         1 <0>         0.1142
     39 H8          0.0245   -0.1667    2.1335 H         1 <0>         0.1295
     40 H9         -2.4545   -4.3810   -0.9703 H         1 <0>         0.1451
     41 H10        -4.4718   -5.2193    0.1583 H         1 <0>         0.1509
     42 H11        -2.1467   -6.1533    3.6179 H         1 <0>         0.1557
     43 H12         1.8269   -3.9316   -1.6903 H         1 <0>         0.4477
     44 H13         4.4306   -5.9840    2.4387 H         1 <0>         0.2529
     45 H14         5.5975   -5.9359    0.3805 H         1 <0>         0.1459
     46 H15         4.8482   -5.2400   -1.0763 H         1 <0>         0.1179
     47 H16         5.0402   -2.9723   -0.0919 H         1 <0>         0.0934
     48 H17         5.7895   -3.6682    1.3650 H         1 <0>         0.1043
     49 H18         7.6455   -4.5609   -0.0159 H         1 <0>         0.1347
     50 H19         6.8962   -3.8649   -1.4728 H         1 <0>         0.1320
     51 H20         6.9922   -1.1944   -1.7670 H         1 <0>         0.2241
     52 H21         8.4638    0.6302   -0.5852 H         1 <0>         0.2274
     53 H22         8.7773   -2.8832    1.6993 H         1 <0>         0.2632
     54 H23        -4.7173   -7.1447    2.4435 H         1 <0>         0.4076
     55 H24         3.4830   -4.2143   -1.6880 H         1 <0>         0.4259
     56 H25         9.4732   -0.4972    1.4533 H         1 <0>         0.4702
@<TRIPOS>BOND
     1    1    2 1
     2    1   33 1
     3    1   34 1
     4    1   35 1
     5    2    7 ar
     6    2    3 ar
     7    3    4 ar
     8    3   36 1
     9    4    5 ar
    10    4   37 1
    11    5    6 ar
    12    5    8 1
    13    6    7 ar
    14    6   38 1
    15    7   39 1
    16    8    9 1
    17    8   18 1
    18    8   10 1
    19   10   15 ar
    20   10   11 ar
    21   11   12 ar
    22   11   40 1
    23   12   13 ar
    24   12   41 1
    25   13   14 ar
    26   13   32 1
    27   14   15 ar
    28   14   42 1
    29   15   16 1
    30   16   17 1
    31   17   23 1
    32   17   18 2
    33   18   19 1
    34   19   20 2
    35   19   21 1
    36   20   43 1
    37   20   55 1
    38   21   22 1
    39   21   24 1
    40   22   23 2
    41   22   44 1
    42   24   25 1
    43   24   45 1
    44   24   46 1
    45   25   26 1
    46   25   47 1
    47   25   48 1
    48   26   27 1
    49   26   49 1
    50   26   50 1
    51   27   31 1
    52   27   28 1
    53   28   29 2
    54   28   51 1
    55   29   30 1
    56   29   52 1
    57   30   31 2
    58   30   56 1
    59   31   53 1
    60   32   54 1
@<TRIPOS>MOLECULE
ZINC39678985
   67    69     0     0     0
SMALL
USER_CHARGES

@<TRIPOS>ATOM
      1 C1         -0.6102    1.7238   -0.1425 C.3       1 <0>        -0.1197
      2 C2         -0.4802    0.2225   -0.1575 C.ar      1 <0>        -0.1242
      3 C3         -0.4931   -0.4588   -1.3613 C.ar      1 <0>        -0.0402
      4 C4         -0.3745   -1.8363   -1.3866 C.ar      1 <0>        -0.1608
      5 C5         -0.2424   -2.5445   -0.2067 C.ar      1 <0>         0.1656
      6 C6         -0.2285   -1.8635    1.0151 C.ar      1 <0>        -0.2040
      7 C7         -0.3429   -0.4691    1.0310 C.ar      1 <0>         0.1590
      8 F1         -0.3246    0.1988    2.2053 F         1 <0>        -0.1192
      9 C8         -0.0879   -2.6109    2.2794 C.2       1 <0>         0.6058
     10 O1          1.0171   -2.8280    2.7377 O.2       1 <0>        -0.5072
     11 N1         -1.1845   -3.0531    2.9263 N.am      1 <0>        -0.6101
     12 C9         -2.6020   -2.8935    2.5248 C.3       1 <0>         0.1151
     13 C10        -3.2636   -4.2430    2.8833 C.3       1 <0>        -0.1135
     14 H1         -4.2737   -4.0823    3.2600 H         1 <0>         0.1189
     15 C11        -2.3698   -4.8379    3.9844 C.3       1 <0>        -0.0727
     16 C12        -1.2447   -3.8145    4.1971 C.3       1 <0>         0.1057
     17 C13        -3.1683   -5.0219    5.2712 C.3       1 <0>        -0.1323
     18 C14        -2.2742   -5.6683    6.3332 C.3       1 <0>        -0.0118
     19 N2         -1.7900   -6.9650    5.8447 N.4       1 <0>        -0.5040
     20 C15        -0.9460   -6.7700    4.6595 C.3       1 <0>        -0.0106
     21 C16        -1.7840   -6.1703    3.5268 C.3       1 <0>        -0.1439
     22 C17        -3.2915   -5.1498    1.6799 C.2       1 <0>         0.5142
     23 O2         -2.4221   -5.0675    0.8383 O.2       1 <0>        -0.4996
     24 N3         -4.2827   -6.0521    1.5389 N.am      1 <0>        -0.7356
     25 C18        -4.3098   -6.9336    0.3691 C.3       1 <0>         0.1174
     26 C19        -5.5288   -7.8545    0.4527 C.3       1 <0>        -0.1286
     27 C20        -5.5571   -8.7751   -0.7690 C.3       1 <0>        -0.1491
     28 C21        -6.7761   -9.6961   -0.6855 C.3       1 <0>        -0.0097
     29 N4         -6.8033  -10.5800   -1.8585 N.4       1 <0>        -0.3883
     30 C22        -5.6379  -11.4738   -1.8253 C.3       1 <0>        -0.0531
     31 C23        -8.0349  -11.3804   -1.8400 C.3       1 <0>        -0.0484
     32 F2         -0.1276   -3.8903   -0.2336 F         1 <0>        -0.1141
     33 H2          0.3801    2.1749   -0.2051 H         1 <0>         0.0843
     34 H3         -1.2103    2.0451   -0.9939 H         1 <0>         0.0818
     35 H4         -1.0945    2.0374    0.7823 H         1 <0>         0.0749
     36 H5         -0.5967    0.0882   -2.2867 H         1 <0>         0.1535
     37 H6         -0.3855   -2.3604   -2.3308 H         1 <0>         0.1512
     38 H7         -3.0666   -2.0819    3.0848 H         1 <0>         0.0943
     39 H8         -2.6748   -2.7074    1.4532 H         1 <0>         0.0952
     40 H9         -0.2985   -4.3233    4.3809 H         1 <0>         0.0911
     41 H10        -1.4886   -3.1512    5.0269 H         1 <0>         0.0899
     42 H11        -3.5130   -4.0512    5.6276 H         1 <0>         0.1239
     43 H12        -4.0269   -5.6650    5.0779 H         1 <0>         0.0963
     44 H13        -1.4244   -5.0171    6.5377 H         1 <0>         0.1351
     45 H14        -2.8467   -5.8161    7.2488 H         1 <0>         0.1424
     46 H15        -1.2514   -7.4160    6.5690 H         1 <0>         0.4364
     47 H16        -0.1279   -6.0925    4.9039 H         1 <0>         0.1363
     48 H17        -0.5394   -7.7300    4.3414 H         1 <0>         0.1385
     49 H18        -2.5928   -6.8547    3.2708 H         1 <0>         0.0915
     50 H19        -1.1526   -6.0093    2.6530 H         1 <0>         0.1236
     51 H20        -4.9780   -6.1179    2.2120 H         1 <0>         0.4007
     52 H21        -4.3704   -6.3320   -0.5378 H         1 <0>         0.0755
     53 H22        -3.4010   -7.5350    0.3462 H         1 <0>         0.0721
     54 H23        -5.4681   -8.4561    1.3596 H         1 <0>         0.0787
     55 H24        -6.4376   -7.2532    0.4756 H         1 <0>         0.0839
     56 H25        -5.6177   -8.1736   -1.6760 H         1 <0>         0.0935
     57 H26        -4.6483   -9.3765   -0.7920 H         1 <0>         0.0915
     58 H27        -6.7154  -10.2977    0.2214 H         1 <0>         0.1291
     59 H28        -7.6849   -9.0947   -0.6625 H         1 <0>         0.1322
     60 H29        -5.6581  -12.1296   -2.6957 H         1 <0>         0.1274
     61 H30        -4.7240  -10.8799   -1.8390 H         1 <0>         0.1232
     62 H31        -5.6670  -12.0750   -0.9166 H         1 <0>         0.1221
     63 H32        -8.8996  -10.7172   -1.8647 H         1 <0>         0.1248
     64 H33        -8.0551  -12.0362   -2.7104 H         1 <0>         0.1275
     65 H34        -8.0640  -11.9816   -0.9313 H         1 <0>         0.1223
     66 H35        -2.5777   -7.5474    5.6029 H         1 <0>         0.4251
     67 H36        -6.7764  -10.0234   -2.6997 H         1 <0>         0.4290
@<TRIPOS>BOND
     1    1    2 1
     2    1   33 1
     3    1   34 1
     4    1   35 1
     5    2    7 ar
     6    2    3 ar
     7    3    4 ar
     8    3   36 1
     9    4    5 ar
    10    4   37 1
    11    5    6 ar
    12    5   32 1
    13    6    7 ar
    14    6    9 1
    15    7    8 1
    16    9   10 2
    17    9   11 am
    18   11   16 1
    19   11   12 1
    20   12   13 1
    21   12   38 1
    22   12   39 1
    23   13   14 1
    24   13   15 1
    25   13   22 1
    26   15   21 1
    27   15   16 1
    28   15   17 1
    29   16   40 1
    30   16   41 1
    31   17   18 1
    32   17   42 1
    33   17   43 1
    34   18   19 1
    35   18   44 1
    36   18   45 1
    37   19   20 1
    38   19   46 1
    39   19   66 1
    40   20   21 1
    41   20   47 1
    42   20   48 1
    43   21   49 1
    44   21   50 1
    45   22   23 2
    46   22   24 am
    47   24   25 1
    48   24   51 1
    49   25   26 1
    50   25   52 1
    51   25   53 1
    52   26   27 1
    53   26   54 1
    54   26   55 1
    55   27   28 1
    56   27   56 1
    57   27   57 1
    58   28   29 1
    59   28   58 1
    60   28   59 1
    61   29   30 1
    62   29   31 1
    63   29   67 1
    64   30   60 1
    65   30   61 1
    66   30   62 1
    67   31   63 1
    68   31   64 1
    69   31   65 1
@<TRIPOS>MOLECULE
ZINC63619698
   53    56     0     0     0
SMALL
USER_CHARGES

@<TRIPOS>ATOM
      1 C1         -0.2919    1.2729   -0.1843 C.3       1 <0>        -0.1848
      2 C2         -0.0341   -0.2288   -0.0449 C.3       1 <0>         0.0788
      3 C3          0.7807   -0.7198   -1.2432 C.3       1 <0>        -0.1515
      4 O1          0.6932   -0.4774    1.1597 O.3       1 <0>        -0.3083
      5 C4         -0.0306   -0.5997    2.3034 C.ar      1 <0>         0.1386
      6 C5         -1.3999   -0.3764    2.2864 C.ar      1 <0>        -0.1966
      7 C6         -2.1334   -0.5018    3.4500 C.ar      1 <0>        -0.0830
      8 C7         -1.5042   -0.8496    4.6313 C.ar      1 <0>        -0.1279
      9 C8         -0.1400   -1.0721    4.6510 C.ar      1 <0>        -0.0628
     10 C9          0.5974   -0.9536    3.4885 C.ar      1 <0>        -0.1422
     11 C10         0.5426   -1.4505    5.9402 C.3       1 <0>         0.2463
     12 H1          0.8857   -0.5613    6.4691 H         1 <0>         0.1069
     13 N1          1.6739   -2.3798    5.6838 N.3       1 <0>        -0.4724
     14 N2          1.8496   -3.1013    6.9471 N.3       1 <0>        -0.5107
     15 C11         0.5585   -3.0351    7.6613 C.3       1 <0>         0.1946
     16 H2          0.6865   -2.5292    8.6182 H         1 <0>         0.1175
     17 N3         -0.3643   -2.2571    6.7993 N.3       1 <0>        -0.3450
     18 N4         -1.2281   -1.3994    7.5945 N.3       1 <0>        -0.6455
     19 S1         -0.0925   -4.7076    7.9250 S.3       1 <0>        -0.1966
     20 C12        -0.2386   -5.3907    6.2509 C.3       1 <0>        -0.1384
     21 C13        -0.7843   -6.8180    6.3283 C.3       1 <0>         0.2747
     22 N5         -2.0735   -6.8272    7.0309 N.pl3     1 <0>        -0.4631
     23 C14        -1.9374   -7.5762    8.0868 C.ar      1 <0>         0.3282
     24 C15        -2.8603   -7.9631    9.1628 C.ar      1 <0>        -0.1392
     25 C16        -2.4281   -8.7720   10.1509 C.ar      1 <0>         0.0346
     26 C17        -1.1144   -9.2710   10.2020 C.ar      1 <0>         0.0332
     27 C18        -0.1887   -8.9780    9.2669 C.ar      1 <0>        -0.1380
     28 C19        -0.5470   -8.1048    8.1407 C.ar      1 <0>         0.3288
     29 N6          0.1227   -7.6622    7.1160 N.pl3     1 <0>        -0.4630
     30 H3          0.6597    1.8033   -0.2184 H         1 <0>         0.0718
     31 H4         -0.8467    1.4625   -1.1032 H         1 <0>         0.0780
     32 H5         -0.8724    1.6226    0.6694 H         1 <0>         0.0619
     33 H6         -0.9858   -0.7592   -0.0108 H         1 <0>         0.0730
     34 H7          1.7323   -0.1894   -1.2773 H         1 <0>         0.0710
     35 H8          0.9643   -1.7896   -1.1439 H         1 <0>         0.0639
     36 H9          0.2259   -0.5301   -2.1621 H         1 <0>         0.0825
     37 H10        -1.8918   -0.1044    1.3642 H         1 <0>         0.1341
     38 H11        -3.1993   -0.3277    3.4374 H         1 <0>         0.1284
     39 H12        -2.0795   -0.9471    5.5401 H         1 <0>         0.1452
     40 H13         1.6624   -1.1320    3.5035 H         1 <0>         0.1365
     41 H14         1.4561   -3.0158    4.9314 H         1 <0>         0.3656
     42 H15         2.5889   -2.6913    7.4979 H         1 <0>         0.3855
     43 H16        -1.8435   -1.9468    8.1774 H         1 <0>         0.3655
     44 H17        -0.6857   -0.7533    8.1479 H         1 <0>         0.3385
     45 H18        -0.9188   -4.7729    5.6645 H         1 <0>         0.1645
     46 H19         0.7425   -5.4020    5.7762 H         1 <0>         0.1615
     47 H20        -0.9009   -7.2285    5.3253 H         1 <0>         0.2470
     48 H21        -3.8780   -7.6016    9.1623 H         1 <0>         0.2059
     49 H22        -3.1182   -9.0475   10.9346 H         1 <0>         0.2036
     50 H23        -0.8358   -9.9145   11.0235 H         1 <0>         0.2037
     51 H24         0.8097   -9.3823    9.3449 H         1 <0>         0.2061
     52 H25        -2.8790   -6.3605    6.7583 H         1 <0>         0.4965
     53 H26         1.0509   -7.8551    6.9104 H         1 <0>         0.4967
@<TRIPOS>BOND
     1    1    2 1
     2    1   30 1
     3    1   31 1
     4    1   32 1
     5    2    3 1
     6    2    4 1
     7    2   33 1
     8    3   34 1
     9    3   35 1
    10    3   36 1
    11    4    5 1
    12    5   10 ar
    13    5    6 ar
    14    6    7 ar
    15    6   37 1
    16    7    8 ar
    17    7   38 1
    18    8    9 ar
    19    8   39 1
    20    9   10 ar
    21    9   11 1
    22   10   40 1
    23   11   12 1
    24   11   17 1
    25   11   13 1
    26   13   14 1
    27   13   41 1
    28   14   15 1
    29   14   42 1
    30   15   16 1
    31   15   17 1
    32   15   19 1
    33   17   18 1
    34   18   43 1
    35   18   44 1
    36   19   20 1
    37   20   21 1
    38   20   45 1
    39   20   46 1
    40   21   29 1
    41   21   22 1
    42   21   47 1
    43   22   23 2
    44   22   52 1
    45   23   28 ar
    46   23   24 ar
    47   24   25 ar
    48   24   48 1
    49   25   26 ar
    50   25   49 1
    51   26   27 ar
    52   26   50 1
    53   27   28 ar
    54   27   51 1
    55   28   29 2
    56   29   53 1
@<TRIPOS>MOLECULE
ZINC65305789
   50    52     0     0     0
SMALL
USER_CHARGES

@<TRIPOS>ATOM
      1 C1          0.7057   -0.2986   -1.4285 C.3       1 <0>        -0.1459
      2 C2         -0.3020    0.3894   -0.5054 C.3       1 <0>        -0.0983
      3 C3         -0.8884    1.6130   -1.2123 C.3       1 <0>        -0.1567
      4 C4         -1.4273   -0.5881   -0.1600 C.3       1 <0>         0.1459
      5 H1         -1.0007   -1.5011    0.2554 H         1 <0>         0.1257
      6 C5         -2.3472    0.0428    0.8533 C.2       1 <0>         0.5332
      7 O1         -3.3619    0.5979    0.4884 O.2       1 <0>        -0.4754
      8 N1         -2.0423   -0.0099    2.1651 N.am      1 <0>        -0.7253
      9 C6         -2.8821    0.6892    3.1410 C.3       1 <0>         0.4790
     10 N2         -4.1043   -0.0826    3.3988 N.pl3     1 <0>        -0.4762
     11 C7         -4.1143   -0.3869    4.6644 C.ar      1 <0>         0.3363
     12 C8         -5.0597   -1.1350    5.5045 C.ar      1 <0>        -0.1365
     13 C9         -4.8005   -1.2939    6.8179 C.ar      1 <0>         0.0336
     14 C10        -3.6494   -0.7697    7.4323 C.ar      1 <0>         0.0564
     15 C11        -2.7191   -0.0681    6.7543 C.ar      1 <0>        -0.1477
     16 C12        -2.8961    0.1684    5.3148 C.ar      1 <0>         0.3478
     17 N3         -2.1800    0.7946    4.4262 N.pl3     1 <0>        -0.4903
     18 N4         -2.1837   -0.9101   -1.3725 N.am      1 <0>        -0.7254
     19 C13        -1.7576   -1.8917   -2.1919 C.2       1 <0>         0.5243
     20 O2         -0.7479   -2.5084   -1.9254 O.2       1 <0>        -0.5031
     21 C14        -2.5357   -2.2229   -3.4392 C.3       1 <0>        -0.0962
     22 C15        -1.8528   -3.3479   -4.1734 C.ar      1 <0>        -0.1156
     23 C16        -0.9631   -3.0682   -5.1935 C.ar      1 <0>        -0.0772
     24 C17        -0.3365   -4.0999   -5.8670 C.ar      1 <0>        -0.1237
     25 C18        -0.5990   -5.4126   -5.5214 C.ar      1 <0>        -0.0805
     26 C19        -1.4877   -5.6947   -4.5016 C.ar      1 <0>        -0.1505
     27 C20        -2.1121   -4.6618   -3.8226 C.ar      1 <0>         0.1105
     28 F1         -2.9776   -4.9363   -2.8223 F         1 <0>        -0.1428
     29 H2          1.5074    0.3977   -1.6746 H         1 <0>         0.0668
     30 H3          1.1235   -1.1704   -0.9249 H         1 <0>         0.0678
     31 H4          0.2042   -0.6133   -2.3436 H         1 <0>         0.0674
     32 H5          0.1996    0.7041    0.4098 H         1 <0>         0.0819
     33 H6         -1.4208    1.2945   -2.1085 H         1 <0>         0.0689
     34 H7         -1.5793    2.1237   -0.5415 H         1 <0>         0.0485
     35 H8         -0.0830    2.2927   -1.4904 H         1 <0>         0.0741
     36 H9         -1.2669   -0.5108    2.4631 H         1 <0>         0.4396
     37 H10        -3.1369    1.6825    2.7713 H         1 <0>         0.2471
     38 H11        -5.9560   -1.5551    5.0726 H         1 <0>         0.2091
     39 H12        -5.5049   -1.8462    7.4222 H         1 <0>         0.2076
     40 H13        -3.5049   -0.9354    8.4897 H         1 <0>         0.2086
     41 H14        -1.8496    0.3176    7.2656 H         1 <0>         0.2106
     42 H15        -2.9913   -0.4168   -1.5857 H         1 <0>         0.4141
     43 H16        -3.5463   -2.5274   -3.1668 H         1 <0>         0.1096
     44 H17        -2.5820   -1.3443   -4.0826 H         1 <0>         0.1157
     45 H18        -0.7576   -2.0432   -5.4646 H         1 <0>         0.1318
     46 H19         0.3583   -3.8804   -6.6642 H         1 <0>         0.1352
     47 H20        -0.1094   -6.2179   -6.0488 H         1 <0>         0.1382
     48 H21        -1.6928   -6.7202   -4.2320 H         1 <0>         0.1384
     49 H22        -4.7805   -0.3217    2.7457 H         1 <0>         0.4949
     50 H23        -1.3369    1.2475    4.5841 H         1 <0>         0.4989
@<TRIPOS>BOND
     1    1    2 1
     2    1   29 1
     3    1   30 1
     4    1   31 1
     5    2    3 1
     6    2    4 1
     7    2   32 1
     8    3   33 1
     9    3   34 1
    10    3   35 1
    11    4    5 1
    12    4    6 1
    13    4   18 1
    14    6    7 2
    15    6    8 am
    16    8    9 1
    17    8   36 1
    18    9   17 1
    19    9   10 1
    20    9   37 1
    21   10   11 2
    22   10   49 1
    23   11   16 ar
    24   11   12 ar
    25   12   13 ar
    26   12   38 1
    27   13   14 ar
    28   13   39 1
    29   14   15 ar
    30   14   40 1
    31   15   16 ar
    32   15   41 1
    33   16   17 2
    34   17   50 1
    35   18   19 am
    36   18   42 1
    37   19   20 2
    38   19   21 1
    39   21   22 1
    40   21   43 1
    41   21   44 1
    42   22   27 ar
    43   22   23 ar
    44   23   24 ar
    45   23   45 1
    46   24   25 ar
    47   24   46 1
    48   25   26 ar
    49   25   47 1
    50   26   27 ar
    51   26   48 1
    52   27   28 1
@<TRIPOS>MOLECULE
ZINC05486820
   51    53     0     0     0
SMALL
USER_CHARGES
1-(2-diethylaminoethylamino)-7-hydroxy-4-(hydroxymethyl)xanthen-9-one
@<TRIPOS>ATOM
      1 C1          1.3587    2.7749    2.1378 C.3       1 <0>        -0.1877
      2 C2          0.1490    1.8412    2.2128 C.3       1 <0>        -0.0172
      3 C3         -1.1266    3.3449    0.8077 C.3       1 <0>        -0.0107
      4 C4         -2.0485    3.7147    1.9714 C.3       1 <0>        -0.1881
      5 C5          0.1243    1.5264   -0.1878 C.3       1 <0>        -0.0213
      6 C6          0.3949    0.0242   -0.0830 C.3       1 <0>         0.0964
      7 N1          1.1619   -0.4165   -1.2508 N.pl3     1 <0>        -0.7281
      8 C7          1.5285   -1.7502   -1.3780 C.ar      1 <0>         0.2989
      9 C8          1.2910   -2.6432   -0.3425 C.ar      1 <0>        -0.2377
     10 C9          1.6580   -3.9700   -0.4741 C.ar      1 <0>         0.0235
     11 C10         2.2620   -4.4266   -1.6289 C.ar      1 <0>        -0.1658
     12 C11         2.5120   -3.5550   -2.6819 C.ar      1 <0>         0.2203
     13 C12         2.1366   -2.2072   -2.5561 C.ar      1 <0>        -0.2991
     14 C13         2.4102   -1.2856   -3.6720 C.2       1 <0>         0.4567
     15 O1          2.1114   -0.1067   -3.6142 O.2       1 <0>        -0.4772
     16 C14         3.0594   -1.8628   -4.8678 C.ar      1 <0>        -0.2146
     17 C15         3.3521   -1.0672   -5.9751 C.ar      1 <0>        -0.0548
     18 C16         3.9601   -1.6324   -7.0804 C.ar      1 <0>         0.0802
     19 C17         4.2761   -2.9873   -7.0845 C.ar      1 <0>        -0.0717
     20 C18         3.9895   -3.7787   -5.9937 C.ar      1 <0>        -0.1244
     21 C19         3.3782   -3.2287   -4.8711 C.ar      1 <0>         0.1550
     22 O2          3.1019   -4.0098   -3.8060 O.3       1 <0>        -0.2244
     23 O3          4.2490   -0.8640   -8.1643 O.3       1 <0>        -0.4898
     24 C20         2.6524   -5.8773   -1.7477 C.3       1 <0>         0.1285
     25 O4          2.2966   -6.5661   -0.5472 O.3       1 <0>        -0.5729
     26 H1          2.0119    2.4586    1.3246 H         1 <0>         0.0796
     27 H2          1.0197    3.7948    1.9559 H         1 <0>         0.0817
     28 H3          1.9062    2.7365    3.0795 H         1 <0>         0.1074
     29 H4         -0.4657    2.1111    3.0715 H         1 <0>         0.1337
     30 H5          0.4907    0.8117    2.3198 H         1 <0>         0.1298
     31 H6         -0.2770    4.0273    0.7862 H         1 <0>         0.1338
     32 H7         -1.6771    3.4203   -0.1301 H         1 <0>         0.1300
     33 H8         -2.8437    2.9739    2.0546 H         1 <0>         0.0804
     34 H9         -1.4739    3.7366    2.8974 H         1 <0>         0.0816
     35 H10        -2.4848    4.6973    1.7912 H         1 <0>         0.1070
     36 H11         1.0715    2.0646   -0.2246 H         1 <0>         0.1401
     37 H12        -0.4451    1.7306   -1.0946 H         1 <0>         0.1375
     38 H13         0.9643   -0.1800    0.8238 H         1 <0>         0.0841
     39 H14        -0.5522   -0.5139   -0.0461 H         1 <0>         0.0846
     40 H15         1.4136    0.2231   -1.9353 H         1 <0>         0.4217
     41 H16         0.8188   -2.3017    0.5668 H         1 <0>         0.1319
     42 H17         1.4694   -4.6581    0.3366 H         1 <0>         0.1535
     43 H18         3.1053   -0.0158   -5.9691 H         1 <0>         0.1485
     44 H19         4.7510   -3.4230   -7.9511 H         1 <0>         0.1521
     45 H20         4.2405   -4.8290   -6.0098 H         1 <0>         0.1530
     46 H21         3.5391   -0.8257   -8.8198 H         1 <0>         0.3967
     47 H22         2.1300   -6.3261   -2.5925 H         1 <0>         0.0633
     48 H23         3.7285   -5.9523   -1.9043 H         1 <0>         0.0634
     49 H24         2.5192   -7.5071   -0.5530 H         1 <0>         0.3917
     50 N2         -0.6676    1.9512    0.9857 N.4       1 <0>        -0.3913
     51 H25        -1.4871    1.3389    1.0744 H         1 <0>         0.4302
@<TRIPOS>BOND
     1    1    2 1
     2    1   26 1
     3    1   27 1
     4    1   28 1
     5    2   29 1
     6    2   30 1
     7    2   50 1
     8    3    4 1
     9    3   31 1
    10    3   32 1
    11    3   50 1
    12    4   33 1
    13    4   34 1
    14    4   35 1
    15    5    6 1
    16    5   36 1
    17    5   37 1
    18    5   50 1
    19    6    7 1
    20    6   38 1
    21    6   39 1
    22    7    8 1
    23    7   40 1
    24    8   13 ar
    25    8    9 ar
    26    9   10 ar
    27    9   41 1
    28   10   11 ar
    29   10   42 1
    30   11   12 ar
    31   11   24 1
    32   12   22 1
    33   12   13 ar
    34   13   14 1
    35   14   15 2
    36   14   16 1
    37   16   21 ar
    38   16   17 ar
    39   17   18 ar
    40   17   43 1
    41   18   19 ar
    42   18   23 1
    43   19   20 ar
    44   19   44 1
    45   20   21 ar
    46   20   45 1
    47   21   22 1
    48   23   46 1
    49   24   25 1
    50   24   47 1
    51   24   48 1
    52   25   49 1
    53   50   51 1
@<TRIPOS>MOLECULE
ZINC28914821
   54    56     0     0     0
SMALL
USER_CHARGES
2-[2-[[(2R)-2-hydroxypropyl]amino]benzimidazol-1-yl]-N-(2,4,6-trimethylphenyl)acetamide
@<TRIPOS>ATOM
      1 C1          2.4449    1.2511    0.3045 C.3       1 <0>        -0.1239
      2 C2          1.1060    1.9340    0.1950 C.ar      1 <0>        -0.0643
      3 C3          0.5248    2.1180   -1.0462 C.ar      1 <0>        -0.1183
      4 C4         -0.6997    2.7481   -1.1504 C.ar      1 <0>        -0.0668
      5 C5         -1.3520    3.1883   -0.0062 C.ar      1 <0>         0.1175
      6 C6         -0.7659    3.0016    1.2389 C.ar      1 <0>        -0.0737
      7 C7          0.4610    2.3750    1.3359 C.ar      1 <0>        -0.1166
      8 C8         -1.4677    3.4827    2.4827 C.3       1 <0>        -0.1142
      9 N1         -2.5952    3.8223   -0.1079 N.am      1 <0>        -0.6743
     10 C9         -3.6641    3.1405   -0.5651 C.2       1 <0>         0.4922
     11 O1         -3.5708    1.9547   -0.8025 O.2       1 <0>        -0.5026
     12 C10        -4.9752    3.8513   -0.7813 C.3       1 <0>         0.0852
     13 N2         -5.9711    2.8986   -1.2779 N.pl3     1 <0>        -0.4625
     14 C11        -6.8292    2.1307   -0.5078 C.ar      1 <0>         0.0920
     15 C12        -7.0370    1.9969    0.8566 C.ar      1 <0>        -0.0885
     16 C13        -7.9963    1.1216    1.3225 C.ar      1 <0>        -0.0762
     17 C14        -8.7547    0.3729    0.4347 C.ar      1 <0>        -0.0868
     18 C15        -8.5618    0.4931   -0.9233 C.ar      1 <0>        -0.0796
     19 C16        -7.5947    1.3754   -1.4112 C.ar      1 <0>         0.0599
     20 N3         -7.1800    1.7076   -2.6621 N.pl3     1 <0>        -0.5582
     21 C17        -6.2305    2.6065   -2.5863 C.cat     1 <0>         0.6645
     22 N4         -5.5858    3.1710   -3.6668 N.pl3     1 <0>        -0.6848
     23 C18        -5.9540    2.7748   -5.0283 C.3       1 <0>         0.1144
     24 C19        -5.0943    3.5438   -6.0334 C.3       1 <0>         0.1051
     25 H1         -4.0223    3.3821   -5.8471 H         1 <0>         0.0684
     26 C20        -5.4788    3.1301   -7.4553 C.3       1 <0>        -0.1888
     27 O2         -5.3112    4.9469   -5.8705 O.3       1 <0>        -0.6073
     28 C21        -1.3294    2.9538   -2.5040 C.3       1 <0>        -0.1058
     29 H2          2.7983    0.9739   -0.6996 H         1 <0>         0.0689
     30 H3          2.3453    0.3456    0.9211 H         1 <0>         0.0752
     31 H4          3.1683    1.9353    0.7719 H         1 <0>         0.0762
     32 H5          1.0311    1.7724   -1.9354 H         1 <0>         0.1274
     33 H6          0.9174    2.2295    2.3039 H         1 <0>         0.1300
     34 H7         -0.8536    3.2473    3.3645 H         1 <0>         0.0729
     35 H8         -2.4429    2.9814    2.5706 H         1 <0>         0.0664
     36 H9         -1.6188    4.5705    2.4209 H         1 <0>         0.0706
     37 H10        -2.7002    4.8773    0.1853 H         1 <0>         0.4354
     38 H11        -5.3210    4.2804    0.1707 H         1 <0>         0.1508
     39 H12        -4.8386    4.6565   -1.5182 H         1 <0>         0.1366
     40 H13        -6.4493    2.5765    1.5530 H         1 <0>         0.1414
     41 H14        -8.1573    1.0182    2.3854 H         1 <0>         0.1514
     42 H15        -9.5025   -0.3093    0.8114 H         1 <0>         0.1521
     43 H16        -9.1558   -0.0929   -1.6089 H         1 <0>         0.1485
     44 H17        -4.7951    3.9187   -3.5064 H         1 <0>         0.4630
     45 H18        -5.7870    1.6948   -5.1537 H         1 <0>         0.0987
     46 H19        -7.0156    3.0043   -5.2026 H         1 <0>         0.0934
     47 H20        -4.8606    3.6831   -8.1779 H         1 <0>         0.0763
     48 H21        -6.5404    3.3597   -7.6296 H         1 <0>         0.0728
     49 H22        -5.3118    2.0501   -7.5807 H         1 <0>         0.0733
     50 H23        -4.7758    5.6641   -6.5100 H         1 <0>         0.4293
     51 H24        -2.2942    3.4686   -2.3851 H         1 <0>         0.0475
     52 H25        -1.4913    1.9780   -2.9852 H         1 <0>         0.0707
     53 H26        -0.6623    3.5650   -3.1296 H         1 <0>         0.0736
     54 H27        -7.6418    1.2309   -3.5393 H         1 <0>         0.4913
@<TRIPOS>BOND
     1    1    2 1
     2    1   29 1
     3    1   30 1
     4    1   31 1
     5    2    7 ar
     6    2    3 ar
     7    3    4 ar
     8    3   32 1
     9    4    5 ar
    10    4   28 1
    11    5    6 ar
    12    5    9 1
    13    6    7 ar
    14    6    8 1
    15    7   33 1
    16    8   34 1
    17    8   35 1
    18    8   36 1
    19    9   10 am
    20    9   37 1
    21   10   11 2
    22   10   12 1
    23   12   13 1
    24   12   38 1
    25   12   39 1
    26   13   21 1
    27   13   14 1
    28   14   19 ar
    29   14   15 ar
    30   15   16 ar
    31   15   40 1
    32   16   17 ar
    33   16   41 1
    34   17   18 ar
    35   17   42 1
    36   18   19 ar
    37   18   43 1
    38   19   20 1
    39   20   21 2
    40   20   54 1
    41   21   22 1
    42   22   23 1
    43   22   44 1
    44   23   24 1
    45   23   45 1
    46   23   46 1
    47   24   25 1
    48   24   26 1
    49   24   27 1
    50   26   47 1
    51   26   48 1
    52   26   49 1
    53   27   50 1
    54   28   51 1
    55   28   52 1
    56   28   53 1
@<TRIPOS>MOLECULE
ZINC43085353
   52    53     0     0     0
SMALL
USER_CHARGES

@<TRIPOS>ATOM
      1 C1         -0.8024    1.9664    1.0458 C.3       1 <0>        -0.1351
      2 C2         -0.0592    0.6988    0.7113 C.ar      1 <0>         0.0442
      3 C3          0.0772    0.3037   -0.6037 C.ar      1 <0>        -0.1418
      4 C4          0.7591   -0.8596   -0.9124 C.ar      1 <0>         0.0210
      5 C5          1.3088   -1.6345    0.0937 C.ar      1 <0>        -0.6903
      6 C6          1.1801   -1.2506    1.4124 C.ar      1 <0>         0.0124
      7 C7          0.4977   -0.0751    1.7304 C.ar      1 <0>        -0.1739
      8 C8          0.3609    0.3454    3.1412 C.2       1 <0>         0.5645
      9 O1         -0.1394    1.4203    3.4092 O.2       1 <0>        -0.5000
     10 N1          0.7907   -0.4631    4.1301 N.am      1 <0>        -0.7549
     11 C9          0.6551   -0.0465    5.5281 C.3       1 <0>         0.0933
     12 C10         1.0401   -1.2083    6.4462 C.3       1 <0>         0.0055
     13 H1          2.0079   -1.6068    6.1415 H         1 <0>         0.1477
     14 C11         1.1254   -0.7104    7.8904 C.3       1 <0>        -0.1787
     15 N2          0.0238   -2.2647    6.3516 N.4       1 <0>        -0.3750
     16 C12        -1.3029   -1.6891    6.6025 C.3       1 <0>        -0.0202
     17 C13        -2.3562   -2.7990    6.5854 C.3       1 <0>        -0.1426
     18 C14        -2.3459   -3.4839    5.2157 C.3       1 <0>        -0.1397
     19 C15        -0.9379   -4.0155    4.9323 C.3       1 <0>        -0.1381
     20 C16         0.0628   -2.8605    5.0107 C.3       1 <0>        -0.0057
     21 H2         -0.1971   -2.1043    4.2699 H         1 <0>         0.1464
     22 C17         1.4713   -3.3869    4.7279 C.3       1 <0>        -0.2014
     23 S1          2.1745   -3.1150   -0.3104 S.o2      1 <0>         2.7033
     24 O2          2.1226   -3.9435    0.8430 O.2       1 <0>        -0.9669
     25 O3          1.6855   -3.5389   -1.5755 O.2       1 <0>        -0.9506
     26 N3          3.7646   -2.7081   -0.5297 N.pl3     1 <0>        -1.2485
     27 H3         -0.0890    2.7759    1.2001 H         1 <0>         0.0912
     28 H4         -1.4711    2.2231    0.2243 H         1 <0>         0.0737
     29 H5         -1.3846    1.8170    1.9551 H         1 <0>         0.0980
     30 H6         -0.3498    0.9038   -1.3936 H         1 <0>         0.1506
     31 H7          0.8627   -1.1646   -1.9433 H         1 <0>         0.1559
     32 H8          1.6096   -1.8562    2.1967 H         1 <0>         0.1354
     33 H9          1.1899   -1.3209    3.9163 H         1 <0>         0.4029
     34 H10         1.3125    0.8015    5.7199 H         1 <0>         0.1162
     35 H11        -0.3776    0.2432    5.7223 H         1 <0>         0.1031
     36 H12         1.4020   -1.5375    8.5441 H         1 <0>         0.0901
     37 H13         1.8779    0.0751    7.9600 H         1 <0>         0.1110
     38 H14         0.1571   -0.3140    8.1958 H         1 <0>         0.0862
     39 H15        -1.3077   -1.1992    7.5762 H         1 <0>         0.1354
     40 H16        -1.5337   -0.9578    5.8278 H         1 <0>         0.1297
     41 H17        -2.1265   -3.5307    7.3600 H         1 <0>         0.0891
     42 H18        -3.3408   -2.3693    6.7701 H         1 <0>         0.1129
     43 H19        -3.0547   -4.3119    5.2169 H         1 <0>         0.0974
     44 H20        -2.6255   -2.7643    4.4462 H         1 <0>         0.0799
     45 H21        -0.6789   -4.7724    5.6726 H         1 <0>         0.0910
     46 H22        -0.9088   -4.4553    3.9355 H         1 <0>         0.1148
     47 H23         1.7839   -4.0430    5.5403 H         1 <0>         0.0929
     48 H24         1.4697   -3.9440    3.7911 H         1 <0>         0.1241
     49 H25         2.1638   -2.5486    4.6510 H         1 <0>         0.0764
     50 H26         4.0480   -1.7861   -0.4267 H         1 <0>         0.4182
     51 H27         4.4127   -3.3917   -0.7612 H         1 <0>         0.4259
     52 H28         0.2151   -2.9766    7.0406 H         1 <0>         0.4229
@<TRIPOS>BOND
     1    1    2 1
     2    1   27 1
     3    1   28 1
     4    1   29 1
     5    2    7 ar
     6    2    3 ar
     7    3    4 ar
     8    3   30 1
     9    4    5 ar
    10    4   31 1
    11    5    6 ar
    12    5   23 1
    13    6    7 ar
    14    6   32 1
    15    7    8 1
    16    8    9 2
    17    8   10 am
    18   10   11 1
    19   10   33 1
    20   11   12 1
    21   11   34 1
    22   11   35 1
    23   12   13 1
    24   12   14 1
    25   12   15 1
    26   14   36 1
    27   14   37 1
    28   14   38 1
    29   15   20 1
    30   15   16 1
    31   15   52 1
    32   16   17 1
    33   16   39 1
    34   16   40 1
    35   17   18 1
    36   17   41 1
    37   17   42 1
    38   18   19 1
    39   18   43 1
    40   18   44 1
    41   19   20 1
    42   19   45 1
    43   19   46 1
    44   20   21 1
    45   20   22 1
    46   22   47 1
    47   22   48 1
    48   22   49 1
    49   23   24 2
    50   23   25 2
    51   23   26 1
    52   26   50 1
    53   26   51 1
@<TRIPOS>MOLECULE
ZINC49874859
   48    50     0     0     0
SMALL
USER_CHARGES

@<TRIPOS>ATOM
      1 C1         -0.0187    1.5258    0.0104 C.3       1 <0>        -0.1606
      2 C2          0.0021   -0.0041    0.0020 C.3       1 <0>         0.1889
      3 H1          0.5123   -0.3556   -0.8948 H         1 <0>         0.1036
      4 C3         -1.4117   -0.5257    0.0127 C.ar      1 <0>        -0.1170
      5 C4         -2.1224   -0.5707    1.1977 C.ar      1 <0>        -0.0868
      6 C5         -3.4191   -1.0484    1.2086 C.ar      1 <0>        -0.1480
      7 C6         -4.0065   -1.4821    0.0322 C.ar      1 <0>         0.1105
      8 C7         -3.2938   -1.4366   -1.1540 C.ar      1 <0>        -0.1459
      9 C8         -1.9990   -0.9535   -1.1634 C.ar      1 <0>        -0.0734
     10 F1         -5.2740   -1.9497    0.0418 F         1 <0>        -0.1322
     11 N1          0.7106   -0.4894    1.1889 N.am      1 <0>        -0.7105
     12 C9          2.0538   -0.5998    1.1737 C.2       1 <0>         0.4925
     13 O1          2.6758   -0.2974    0.1774 O.2       1 <0>        -0.5141
     14 C10         2.7826   -1.0990    2.3946 C.3       1 <0>         0.0841
     15 N2          4.2226   -1.1273    2.1261 N.pl3     1 <0>        -0.4582
     16 C11         4.9389   -2.1881    1.5963 C.ar      1 <0>         0.0951
     17 C12         4.5970   -3.4642    1.1751 C.ar      1 <0>        -0.0872
     18 C13         5.5704   -4.3084    0.6820 C.ar      1 <0>        -0.0726
     19 C14         6.8904   -3.8893    0.6045 C.ar      1 <0>        -0.0844
     20 C15         7.2478   -2.6258    1.0187 C.ar      1 <0>        -0.0768
     21 C16         6.2739   -1.7586    1.5200 C.ar      1 <0>         0.0624
     22 N3          6.3123   -0.4858    1.9950 N.pl3     1 <0>        -0.5348
     23 C17         5.1074   -0.1109    2.3461 C.cat     1 <0>         0.6533
     24 N4          4.7816    1.1249    2.8639 N.pl3     1 <0>        -0.6718
     25 C18         5.8234    2.1371    3.0543 C.3       1 <0>         0.1024
     26 C19         5.2003    3.4069    3.6378 C.3       1 <0>         0.0622
     27 O2          4.6965    3.1321    4.9465 O.3       1 <0>        -0.5755
     28 H2          1.0039    1.9031    0.0027 H         1 <0>         0.0631
     29 H3         -0.5459    1.8868   -0.8726 H         1 <0>         0.0775
     30 H4         -0.5289    1.8773    0.9072 H         1 <0>         0.0638
     31 H5         -1.6639   -0.2327    2.1152 H         1 <0>         0.1293
     32 H6         -3.9740   -1.0837    2.1345 H         1 <0>         0.1412
     33 H7         -3.7509   -1.7749   -2.0722 H         1 <0>         0.1428
     34 H8         -1.4444   -0.9138   -2.0893 H         1 <0>         0.1373
     35 H9          0.2131   -0.7312    1.9857 H         1 <0>         0.4062
     36 H10         2.5826   -0.4337    3.2345 H         1 <0>         0.1365
     37 H11         2.4385   -2.1044    2.6374 H         1 <0>         0.1514
     38 H12         3.5711   -3.7966    1.2332 H         1 <0>         0.1443
     39 H13         5.3030   -5.3022    0.3546 H         1 <0>         0.1536
     40 H14         7.6435   -4.5592    0.2167 H         1 <0>         0.1542
     41 H15         8.2774   -2.3059    0.9555 H         1 <0>         0.1503
     42 H16         3.8626    1.3240    3.1021 H         1 <0>         0.4362
     43 H17         6.5799    1.7554    3.7400 H         1 <0>         0.0974
     44 H18         6.2860    2.3674    2.0946 H         1 <0>         0.1031
     45 H19         5.9572    4.1890    3.6967 H         1 <0>         0.0867
     46 H20         4.3839    3.7388    2.9964 H         1 <0>         0.0659
     47 H21         4.2863    3.8942    5.3780 H         1 <0>         0.3992
     48 H22         7.1096    0.0628    2.0600 H         1 <0>         0.4550
@<TRIPOS>BOND
     1    1    2 1
     2    1   28 1
     3    1   29 1
     4    1   30 1
     5    2    3 1
     6    2    4 1
     7    2   11 1
     8    4    9 ar
     9    4    5 ar
    10    5    6 ar
    11    5   31 1
    12    6    7 ar
    13    6   32 1
    14    7    8 ar
    15    7   10 1
    16    8    9 ar
    17    8   33 1
    18    9   34 1
    19   11   12 am
    20   11   35 1
    21   12   13 2
    22   12   14 1
    23   14   15 1
    24   14   36 1
    25   14   37 1
    26   15   23 1
    27   15   16 1
    28   16   21 ar
    29   16   17 ar
    30   17   18 ar
    31   17   38 1
    32   18   19 ar
    33   18   39 1
    34   19   20 ar
    35   19   40 1
    36   20   21 ar
    37   20   41 1
    38   21   22 1
    39   22   23 2
    40   22   48 1
    41   23   24 1
    42   24   25 1
    43   24   42 1
    44   25   26 1
    45   25   43 1
    46   25   44 1
    47   26   27 1
    48   26   45 1
    49   26   46 1
    50   27   47 1
@<TRIPOS>MOLECULE
ZINC65960621
   51    52     0     0     0
SMALL
USER_CHARGES

@<TRIPOS>ATOM
      1 C1         -0.1708   -1.0889    0.1056 C.1       1 <0>        -0.0632
      2 C2         -0.1150    0.0820    0.0420 C.1       1 <0>        -0.2843
      3 C3         -0.0451    1.5502   -0.0377 C.3       1 <0>         0.1138
      4 N1          1.3603    1.9762   -0.0003 N.4       1 <0>        -0.3689
      5 C4          1.4260    3.4426    0.0575 C.3       1 <0>        -0.0403
      6 C5          0.8296    3.9214    1.3560 C.2       1 <0>         0.5016
      7 O1          0.3928    3.1200    2.1546 O.2       1 <0>        -0.5217
      8 N2          0.7817    5.2402    1.6298 N.am      1 <0>        -0.6991
      9 C6          0.2019    5.7057    2.8921 C.3       1 <0>         0.1530
     10 C7          0.2694    7.2100    2.9513 C.ar      1 <0>        -0.0685
     11 C8          1.3791    7.8313    3.4931 C.ar      1 <0>        -0.1188
     12 C9          1.4409    9.2112    3.5475 C.ar      1 <0>        -0.0200
     13 C10         0.3933    9.9698    3.0597 C.ar      1 <0>        -0.6619
     14 C11        -0.7160    9.3485    2.5171 C.ar      1 <0>        -0.0149
     15 C12        -0.7760    7.9687    2.4589 C.ar      1 <0>        -0.1190
     16 S1          0.4717   11.7286    3.1301 S.o2      1 <0>         2.6980
     17 O2         -0.8700   12.1962    3.1069 O.2       1 <0>        -0.9547
     18 O3          1.3736   12.0533    4.1791 O.2       1 <0>        -0.9525
     19 N3          1.1769   12.2440    1.7232 N.pl3     1 <0>        -1.2462
     20 C13         2.0479    1.5025   -1.2089 C.3       1 <0>         0.0220
     21 C14         3.5413    1.8174   -1.1026 C.3       1 <0>        -0.1407
     22 C15         4.2575    1.3239   -2.3614 C.3       1 <0>        -0.1173
     23 C16         3.6742    2.0270   -3.5887 C.3       1 <0>        -0.1308
     24 C17         2.1807    1.7122   -3.6951 C.3       1 <0>        -0.1173
     25 C18         1.4646    2.2056   -2.4362 C.3       1 <0>        -0.1424
     26 H1         -0.2206   -2.1362    0.1624 H         1 <0>         0.2366
     27 H2         -0.5018    1.8857   -0.9688 H         1 <0>         0.1446
     28 H3         -0.5794    1.9858    0.8067 H         1 <0>         0.1628
     29 H4          2.4662    3.7624   -0.0044 H         1 <0>         0.1654
     30 H5          0.8660    3.8646   -0.7770 H         1 <0>         0.1646
     31 H6          1.1310    5.8812    0.9910 H         1 <0>         0.4129
     32 H7         -0.8383    5.3859    2.9539 H         1 <0>         0.0951
     33 H8          0.7619    5.2837    3.7266 H         1 <0>         0.0951
     34 H9          2.1975    7.2386    3.8741 H         1 <0>         0.1378
     35 H10         2.3076    9.6966    3.9713 H         1 <0>         0.1498
     36 H11        -1.5346    9.9412    2.1364 H         1 <0>         0.1497
     37 H12        -1.6410    7.4834    2.0316 H         1 <0>         0.1379
     38 H13         0.9431   13.1092    1.3520 H         1 <0>         0.4254
     39 H14         1.8238   11.6807    1.2702 H         1 <0>         0.4161
     40 H15         1.9096    0.4258   -1.3071 H         1 <0>         0.1433
     41 H16         3.6796    2.8941   -1.0044 H         1 <0>         0.0855
     42 H17         3.9569    1.3164   -0.2282 H         1 <0>         0.0886
     43 H18         5.3214    1.5482   -2.2856 H         1 <0>         0.0865
     44 H19         4.1192    0.2472   -2.4596 H         1 <0>         0.0757
     45 H20         3.8124    3.1038   -3.4905 H         1 <0>         0.0703
     46 H21         4.1843    1.6755   -4.4855 H         1 <0>         0.0808
     47 H22         1.7651    2.2131   -4.5694 H         1 <0>         0.0862
     48 H23         2.0425    0.6355   -3.7933 H         1 <0>         0.0753
     49 H24         0.4006    1.9813   -2.5120 H         1 <0>         0.0879
     50 H25         1.6028    3.2823   -2.3380 H         1 <0>         0.0877
     51 H26         1.8081    1.5871    0.8158 H         1 <0>         0.4324
@<TRIPOS>BOND
     1    1    2 3
     2    1   26 1
     3    2    3 1
     4    3    4 1
     5    3   27 1
     6    3   28 1
     7    4    5 1
     8    4   20 1
     9    4   51 1
    10    5    6 1
    11    5   29 1
    12    5   30 1
    13    6    7 2
    14    6    8 am
    15    8    9 1
    16    8   31 1
    17    9   10 1
    18    9   32 1
    19    9   33 1
    20   10   15 ar
    21   10   11 ar
    22   11   12 ar
    23   11   34 1
    24   12   13 ar
    25   12   35 1
    26   13   14 ar
    27   13   16 1
    28   14   15 ar
    29   14   36 1
    30   15   37 1
    31   16   17 2
    32   16   18 2
    33   16   19 1
    34   19   38 1
    35   19   39 1
    36   20   25 1
    37   20   21 1
    38   20   40 1
    39   21   22 1
    40   21   41 1
    41   21   42 1
    42   22   23 1
    43   22   43 1
    44   22   44 1
    45   23   24 1
    46   23   45 1
    47   23   46 1
    48   24   25 1
    49   24   47 1
    50   24   48 1
    51   25   49 1
    52   25   50 1
@<TRIPOS>MOLECULE
ZINC03954439
   35    37     0     0     0
SMALL
USER_CHARGES
2-(2-chloro-4-nitro-phenanthridin-6-yl)aminoethanol
@<TRIPOS>ATOM
      1 C1         -1.2303    1.7442    0.0174 C.ar      1 <0>        -0.0386
      2 C2         -0.0126    1.0758    0.0080 C.ar      1 <0>        -0.0986
      3 C3          1.1669    1.7656    0.0004 C.ar      1 <0>        -0.0501
      4 C4          1.1479    3.1621    0.0076 C.ar      1 <0>        -0.1233
      5 C5         -0.0926    3.8399    0.0226 C.ar      1 <0>         0.0256
      6 C6         -1.2795    3.1109    0.0291 C.ar      1 <0>        -0.1026
      7 C7         -0.0675    5.3070    0.0308 C.ar      1 <0>        -0.0544
      8 C8         -1.2465    6.0530    0.0466 C.ar      1 <0>        -0.0037
      9 C9         -1.1827    7.4286    0.0538 C.ar      1 <0>        -0.0400
     10 C10         0.0479    8.0760    0.0451 C.ar      1 <0>         0.0042
     11 C11         1.2122    7.3671    0.0296 C.ar      1 <0>        -0.0536
     12 C12         1.1828    5.9642    0.0224 C.ar      1 <0>         0.1950
     13 C13         2.3779    3.9550    0.0006 C.ar      1 <0>         0.5470
     14 N1          3.6029    3.3152   -0.0146 N.pl3     1 <0>        -0.6449
     15 C14         4.8395    4.1007   -0.0217 C.3       1 <0>         0.0700
     16 C15         6.0433    3.1565   -0.0384 C.3       1 <0>         0.0627
     17 O1          6.0552    2.4215   -1.2639 O.3       1 <0>        -0.5756
     18 N2          2.5102    8.0788    0.0215 N.pl3     1 <0>         0.0351
     19 O2          2.5371    9.2965    0.0278 O.2       1 <0>        -0.0507
     20 O3          3.5512    7.4466    0.0086 O.3       1 <0>        -0.2080
     21 Cl1        -2.6474    8.3602    0.0734 Cl        1 <0>         0.0072
     22 H1         -2.1497    1.1776    0.0191 H         1 <0>         0.1566
     23 H2          0.0021   -0.0041    0.0020 H         1 <0>         0.1560
     24 H3          2.1073    1.2346   -0.0107 H         1 <0>         0.1458
     25 H4         -2.2313    3.6210    0.0409 H         1 <0>         0.1564
     26 H5         -2.2044    5.5541    0.0534 H         1 <0>         0.1803
     27 H6          0.0817    9.1555    0.0509 H         1 <0>         0.1881
     28 H7          3.6438    2.3461   -0.0205 H         1 <0>         0.4411
     29 H8          4.8624    4.7343   -0.9084 H         1 <0>         0.1084
     30 H9          4.8791    4.7241    0.8715 H         1 <0>         0.1139
     31 H10         6.9618    3.7373    0.0458 H         1 <0>         0.0904
     32 H11         5.9733    2.4636    0.8001 H         1 <0>         0.0689
     33 H12         6.7931    1.8016   -1.3435 H         1 <0>         0.4015
     34 N3          2.4103    5.3109    0.0075 N.ar      1 <0>        -0.5727
     35 H13         3.2967    5.8290    0.0020 H         1 <0>         0.4624
@<TRIPOS>BOND
     1    1    6 ar
     2    1    2 ar
     3    1   22 1
     4    2    3 ar
     5    2   23 1
     6    3    4 ar
     7    3   24 1
     8    4   13 ar
     9    4    5 ar
    10    5    6 ar
    11    5    7 ar
    12    6   25 1
    13    7   12 ar
    14    7    8 ar
    15    8    9 ar
    16    8   26 1
    17    9   10 ar
    18    9   21 1
    19   10   11 ar
    20   10   27 1
    21   11   12 ar
    22   11   18 1
    23   12   34 ar
    24   13   14 1
    25   13   34 ar
    26   14   15 1
    27   14   28 1
    28   15   16 1
    29   15   29 1
    30   15   30 1
    31   16   17 1
    32   16   31 1
    33   16   32 1
    34   17   33 1
    35   18   19 2
    36   18   20 1
    37   34   35 1
@<TRIPOS>MOLECULE
ZINC20392847
   36    38     0     0     0
SMALL
USER_CHARGES
2-[3-(4-chlorophenyl)-6-nitro-imidazo[1,2-a]pyridin-2-yl]ethanamine
@<TRIPOS>ATOM
      1 C1          0.7086    1.3273   -1.2089 C.ar      1 <0>        -0.0945
      2 C2          1.8911    0.6489   -1.2204 C.ar      1 <0>        -0.0996
      3 C3          2.3668    0.0489   -0.0585 C.ar      1 <0>        -0.0218
      4 C4          1.6443    0.1338    1.1277 C.ar      1 <0>        -0.1049
      5 C5          0.4594    0.8072    1.1640 C.ar      1 <0>        -0.0842
      6 C6         -0.0344    1.4205   -0.0100 C.ar      1 <0>        -0.0348
      7 C7         -1.2602    2.1142    0.0133 C.2       1 <0>        -0.0538
      8 C8         -1.6542    3.1982    0.9273 C.2       1 <0>         0.1181
      9 N1         -2.8639    3.5533    0.6035 N.2       1 <0>        -0.4562
     10 C9         -3.3160    2.8091   -0.4407 C.2       1 <0>         0.2183
     11 N2         -2.3522    1.9239   -0.8263 N.pl3     1 <0>        -0.3121
     12 C10        -2.5579    1.0681   -1.8585 C.2       1 <0>         0.1306
     13 C11        -3.7547    1.0745   -2.5511 C.2       1 <0>         0.0124
     14 C12        -4.7514    1.9642   -2.1855 C.2       1 <0>        -0.0736
     15 C13        -4.5313    2.8378   -1.1114 C.2       1 <0>        -0.0450
     16 N3         -3.9691    0.1369   -3.6763 N.pl3     1 <0>        -0.0241
     17 O1         -3.0184   -0.7069   -4.0206 O.2       1 <0>        -0.1484
     18 O2         -5.1106    0.1466   -4.3331 O.3       1 <0>        -0.1228
     19 C14        -0.8143    3.7869    2.0314 C.3       1 <0>        -0.0671
     20 C15        -0.0896    5.0307    1.5130 C.3       1 <0>         0.0021
     21 N4          0.8117    5.5419    2.5544 N.4       1 <0>        -0.6860
     22 Cl1         3.8739   -0.8121   -0.0889 Cl        1 <0>        -0.0463
     23 H1          0.3410    1.7916   -2.1121 H         1 <0>         0.1307
     24 H2          2.4609    0.5768   -2.1350 H         1 <0>         0.1437
     25 H3          2.0235   -0.3359    2.0233 H         1 <0>         0.1437
     26 H4         -0.0998    0.8716    2.0857 H         1 <0>         0.1374
     27 H5         -1.7796    0.3750   -2.1417 H         1 <0>         0.1994
     28 H6         -5.6908    1.9801   -2.7181 H         1 <0>         0.1829
     29 H7         -5.2981    3.5386   -0.8159 H         1 <0>         0.1842
     30 H8         -1.4618    4.0651    2.8760 H         1 <0>         0.1158
     31 H9         -0.0748    3.0442    2.3654 H         1 <0>         0.1084
     32 H10         0.4947    4.7685    0.6187 H         1 <0>         0.1308
     33 H11        -0.8278    5.8043    1.2549 H         1 <0>         0.1363
     34 H12         1.3327    6.4361    2.1817 H         1 <0>         0.4640
     35 H13         1.5499    4.7683    2.8125 H         1 <0>         0.4570
     36 H14         0.2273    5.8040    3.4487 H         1 <0>         0.4589
@<TRIPOS>BOND
     1    1    6 ar
     2    1    2 ar
     3    1   23 1
     4    2    3 ar
     5    2   24 1
     6    3    4 ar
     7    3   22 1
     8    4    5 ar
     9    4   25 1
    10    5    6 ar
    11    5   26 1
    12    6    7 1
    13    7   11 1
    14    7    8 2
    15    8    9 1
    16    8   19 1
    17    9   10 2
    18   10   15 1
    19   10   11 1
    20   11   12 1
    21   12   13 2
    22   12   27 1
    23   13   14 1
    24   13   16 1
    25   14   15 2
    26   14   28 1
    27   15   29 1
    28   16   17 2
    29   16   18 1
    30   19   20 1
    31   19   30 1
    32   19   31 1
    33   20   21 1
    34   20   32 1
    35   20   33 1
    36   21   34 1
    37   21   35 1
    38   21   36 1
@<TRIPOS>MOLECULE
ZINC37162996
   42    43     0     0     0
SMALL
USER_CHARGES

@<TRIPOS>ATOM
      1 C1         -0.4286    1.3187    0.4039 C.3       1 <0>        -0.1821
      2 C2         -0.2223   -0.1878    0.2337 C.3       1 <0>         0.0241
      3 H1         -1.1908   -0.6878    0.2242 H         1 <0>         0.1401
      4 C3          0.5029   -0.4567   -1.0866 C.3       1 <0>        -0.1580
      5 C4          0.7067   -1.9654   -1.2526 C.3       1 <0>         0.1378
      6 H2          1.2727   -2.1586   -2.1639 H         1 <0>         0.1151
      7 C5          1.4813   -2.5018   -0.0453 C.3       1 <0>        -0.1160
      8 H3          2.4704   -2.0448   -0.0152 H         1 <0>         0.1146
      9 C6          0.7198   -2.1570    1.2364 C.3       1 <0>        -0.0104
     10 N1          0.5813   -0.7002    1.3500 N.4       1 <0>        -0.3800
     11 C7         -0.0804   -0.3708    2.6195 C.3       1 <0>        -0.0542
     12 C8          1.6236   -4.0206   -0.1633 C.3       1 <0>        -0.1512
     13 N2         -0.5964   -2.6297   -1.3351 N.pl3     1 <0>        -0.7363
     14 C9         -1.2589   -2.7204   -2.5644 C.ar      1 <0>         0.2600
     15 C10        -0.6317   -2.2874   -3.7254 C.ar      1 <0>        -0.1767
     16 C11        -1.2860   -2.3777   -4.9380 C.ar      1 <0>        -0.0464
     17 C12        -2.5694   -2.9007   -4.9969 C.ar      1 <0>         0.0753
     18 C13        -3.1967   -3.3329   -3.8380 C.ar      1 <0>        -0.0453
     19 C14        -2.5415   -3.2486   -2.6249 C.ar      1 <0>        -0.0975
     20 N3         -3.2088   -3.7155   -1.3891 N.pl3     1 <0>         0.0428
     21 O1         -3.9113   -4.6991   -1.4161 O.2       1 <0>        -0.1278
     22 O2         -3.0514   -3.1134   -0.3526 O.3       1 <0>        -0.1929
     23 O3         -3.2131   -2.9893   -6.1916 O.3       1 <0>        -0.4847
     24 H4          0.5397    1.8192    0.4135 H         1 <0>         0.0817
     25 H5         -1.0262    1.6995   -0.4243 H         1 <0>         0.1045
     26 H6         -0.9461    1.5107    1.3438 H         1 <0>         0.0854
     27 H7         -0.0958   -0.0770   -1.9146 H         1 <0>         0.1164
     28 H8          1.4717    0.0427   -1.0781 H         1 <0>         0.1031
     29 H9         -0.2690   -2.6147    1.2053 H         1 <0>         0.1272
     30 H10         1.2684   -2.5377    2.0979 H         1 <0>         0.1395
     31 H11        -1.0695   -0.8282    2.6431 H         1 <0>         0.1246
     32 H12         0.5156   -0.7509    3.4492 H         1 <0>         0.1258
     33 H13        -0.1783    0.7112    2.7082 H         1 <0>         0.1284
     34 H14         2.1630   -4.2649   -1.0784 H         1 <0>         0.0806
     35 H15         2.1749   -4.4017    0.6962 H         1 <0>         0.0761
     36 H16         0.6342   -4.4771   -0.1919 H         1 <0>         0.0647
     37 H17        -1.0000   -3.0066   -0.5377 H         1 <0>         0.4076
     38 H18         0.3674   -1.8798   -3.6797 H         1 <0>         0.1502
     39 H19        -0.7985   -2.0407   -5.8409 H         1 <0>         0.1534
     40 H20        -4.1961   -3.7397   -3.8846 H         1 <0>         0.1576
     41 H21        -3.0643   -3.8234   -6.6577 H         1 <0>         0.4007
     42 H22         1.4953   -0.2733    1.3289 H         1 <0>         0.4221
@<TRIPOS>BOND
     1    1    2 1
     2    1   24 1
     3    1   25 1
     4    1   26 1
     5    2    3 1
     6    2   10 1
     7    2    4 1
     8    4    5 1
     9    4   27 1
    10    4   28 1
    11    5    6 1
    12    5    7 1
    13    5   13 1
    14    7    8 1
    15    7    9 1
    16    7   12 1
    17    9   10 1
    18    9   29 1
    19    9   30 1
    20   10   11 1
    21   10   42 1
    22   11   31 1
    23   11   32 1
    24   11   33 1
    25   12   34 1
    26   12   35 1
    27   12   36 1
    28   13   14 1
    29   13   37 1
    30   14   19 ar
    31   14   15 ar
    32   15   16 ar
    33   15   38 1
    34   16   17 ar
    35   16   39 1
    36   17   18 ar
    37   17   23 1
    38   18   19 ar
    39   18   40 1
    40   19   20 1
    41   20   21 2
    42   20   22 1
    43   23   41 1
@<TRIPOS>MOLECULE
ZINC05580428
   30    33     0     0     0
SMALL
USER_CHARGES

@<TRIPOS>ATOM
      1 C1         -0.0168    1.3844    0.0097 C.2       1 <0>        -0.1949
      2 C2          1.3025    1.8018   -0.0007 C.2       1 <0>        -0.0945
      3 C3          2.0820    0.6382   -0.0144 C.2       1 <0>        -0.0884
      4 N1          1.2542   -0.4161   -0.0122 N.pl3     1 <0>        -0.4788
      5 H1          1.5349   -1.3445   -0.0193 H         1 <0>         0.4271
      6 C4          0.0021   -0.0041    0.0020 C.2       1 <0>         0.0733
      7 C5          3.5468    0.5830   -0.0291 C.2       1 <0>         0.3844
      8 C6          4.1780   -0.6567   -0.0475 C.2       1 <0>        -0.3110
      9 C7          5.5606   -0.7313   -0.0611 C.2       1 <0>         0.3323
     10 C8          6.3260    0.5170   -0.0556 C.ar      1 <0>        -0.1130
     11 C9          7.7263    0.5053   -0.0672 C.ar      1 <0>        -0.0318
     12 C10         8.4191    1.6952   -0.0612 C.ar      1 <0>         0.0436
     13 C11         7.7283    2.9144   -0.0442 C.ar      1 <0>         0.1402
     14 C12         6.3463    2.9354   -0.0328 C.ar      1 <0>        -0.1469
     15 C13         5.6321    1.7428   -0.0379 C.ar      1 <0>         0.2042
     16 N2          4.2543    1.7463   -0.0301 N.pl3     1 <0>        -0.5352
     17 O1          8.6413    3.9282   -0.0417 O.3       1 <0>        -0.2844
     18 C14         9.8861    3.3259    0.3581 C.3       1 <0>         0.2077
     19 O2          9.7597    1.9568   -0.0686 O.3       1 <0>        -0.2874
     20 O3          6.1891   -1.9287   -0.0785 O.3       1 <0>        -0.4187
     21 H2         -0.8922    2.0166    0.0254 H         1 <0>         0.1643
     22 H3          1.6597    2.8210    0.0010 H         1 <0>         0.1567
     23 H4         -0.8685   -0.6432    0.0076 H         1 <0>         0.1946
     24 H5          3.5889   -1.5619   -0.0508 H         1 <0>         0.1746
     25 H6          8.2606   -0.4331   -0.0804 H         1 <0>         0.1723
     26 H7          5.8210    3.8790   -0.0200 H         1 <0>         0.1706
     27 H8         10.7236    3.8080   -0.1461 H         1 <0>         0.1539
     28 H9         10.0071    3.3799    1.4400 H         1 <0>         0.1074
     29 H10         3.7800    2.5924   -0.0213 H         1 <0>         0.4440
     30 H11         5.5897   -2.6875   -0.0803 H         1 <0>         0.4338
@<TRIPOS>BOND
     1    1    6 1
     2    1    2 2
     3    1   21 1
     4    2    3 1
     5    2   22 1
     6    3    4 1
     7    3    7 2
     8    4    5 1
     9    4    6 2
    10    6   23 1
    11    7   16 1
    12    7    8 1
    13    8    9 2
    14    8   24 1
    15    9   10 1
    16    9   20 1
    17   10   15 ar
    18   10   11 ar
    19   11   12 ar
    20   11   25 1
    21   12   19 1
    22   12   13 ar
    23   13   14 ar
    24   13   17 1
    25   14   15 ar
    26   14   26 1
    27   15   16 1
    28   16   29 1
    29   17   18 1
    30   18   19 1
    31   18   27 1
    32   18   28 1
    33   20   30 1
@<TRIPOS>MOLECULE
ZINC49337512
   41    42     0     0     0
SMALL
USER_CHARGES

@<TRIPOS>ATOM
      1 C1         -0.0187    1.5258    0.0104 C.3       1 <0>        -0.1896
      2 C2          0.0021   -0.0041    0.0020 C.3       1 <0>        -0.0099
      3 N1         -1.3761   -0.5125    0.0124 N.4       1 <0>        -0.3823
      4 C3         -2.0260   -0.1396    1.2760 C.3       1 <0>        -0.0593
      5 C4         -1.3591   -1.9758   -0.1163 C.3       1 <0>        -0.0217
      6 C5         -2.7940   -2.4943   -0.2308 C.3       1 <0>         0.1112
      7 N2         -2.7771   -3.9536   -0.3592 N.am      1 <0>        -0.7162
      8 C6         -3.9352   -4.6334   -0.4747 C.2       1 <0>         0.6873
      9 O1         -4.9962   -4.0342   -0.4724 O.2       1 <0>        -0.6188
     10 N3         -3.9197   -5.9661   -0.5920 N.2       1 <0>        -0.6085
     11 C7         -5.0604   -6.6357   -0.7058 C.2       1 <0>         0.4570
     12 N4         -6.3350   -6.1536   -0.7296 N.pl3     1 <0>        -0.6269
     13 H1         -6.4916   -5.1990   -0.6577 H         1 <0>         0.4300
     14 C8         -7.4065   -7.0196   -0.8564 C.ar      1 <0>         0.1013
     15 C9         -8.7727   -6.6915   -0.8973 C.ar      1 <0>        -0.1055
     16 C10        -9.7295   -7.6689   -1.0273 C.ar      1 <0>        -0.0780
     17 C11        -9.3826   -9.0062   -1.1216 C.ar      1 <0>        -0.0722
     18 C12        -8.0452   -9.3593   -1.0843 C.ar      1 <0>        -0.0415
     19 C13        -7.0875   -8.3818   -0.9547 C.ar      1 <0>        -0.1554
     20 S1         -5.3129   -8.3951   -0.8742 S.3       1 <0>         0.1559
     21 C14       -10.4475  -10.0631   -1.2627 C.3       1 <0>        -0.1173
     22 H2          1.0039    1.9031    0.0027 H         1 <0>         0.1078
     23 H3         -0.5459    1.8868   -0.8726 H         1 <0>         0.0812
     24 H4         -0.5289    1.8773    0.9072 H         1 <0>         0.0817
     25 H5          0.5123   -0.3556   -0.8948 H         1 <0>         0.1318
     26 H6          0.5293   -0.3651    0.8851 H         1 <0>         0.1310
     27 H7         -2.0386    0.9461    1.3715 H         1 <0>         0.1292
     28 H8         -3.0486   -0.5169    1.2837 H         1 <0>         0.1261
     29 H9         -1.4732   -0.5714    2.1102 H         1 <0>         0.1254
     30 H10        -0.7994   -2.2555   -1.0088 H         1 <0>         0.1396
     31 H11        -0.8841   -2.4123    0.7622 H         1 <0>         0.1388
     32 H12        -3.3538   -2.2146    0.6617 H         1 <0>         0.0881
     33 H13        -3.2691   -2.0578   -1.1093 H         1 <0>         0.0873
     34 H14        -1.9325   -4.4306   -0.3610 H         1 <0>         0.4144
     35 H15        -9.0744   -5.6570   -0.8253 H         1 <0>         0.1341
     36 H16       -10.7722   -7.3889   -1.0560 H         1 <0>         0.1417
     37 H17        -7.7554  -10.3972   -1.1561 H         1 <0>         0.1450
     38 H18       -10.6535  -10.2325   -2.3196 H         1 <0>         0.0800
     39 H19       -10.1015  -10.9907   -0.8067 H         1 <0>         0.0747
     40 H20       -11.3578   -9.7305   -0.7639 H         1 <0>         0.0752
     41 H21        -1.8879   -0.1129   -0.7598 H         1 <0>         0.4273
@<TRIPOS>BOND
     1    1    2 1
     2    1   22 1
     3    1   23 1
     4    1   24 1
     5    2    3 1
     6    2   25 1
     7    2   26 1
     8    3    4 1
     9    3    5 1
    10    3   41 1
    11    4   27 1
    12    4   28 1
    13    4   29 1
    14    5    6 1
    15    5   30 1
    16    5   31 1
    17    6    7 1
    18    6   32 1
    19    6   33 1
    20    7    8 am
    21    7   34 1
    22    8    9 2
    23    8   10 1
    24   10   11 2
    25   11   20 1
    26   11   12 1
    27   12   13 1
    28   12   14 1
    29   14   19 ar
    30   14   15 ar
    31   15   16 ar
    32   15   35 1
    33   16   17 ar
    34   16   36 1
    35   17   18 ar
    36   17   21 1
    37   18   19 ar
    38   18   37 1
    39   19   20 1
    40   21   38 1
    41   21   39 1
    42   21   40 1
@<TRIPOS>MOLECULE
ZINC06404566
   39    41     0     0     0
SMALL
USER_CHARGES

@<TRIPOS>ATOM
      1 C1         -1.1354   -5.7705   -5.3112 C.3       1 <0>        -0.1361
      2 C2         -0.7435   -5.3414   -3.9208 C.ar      1 <0>        -0.0175
      3 C3         -0.9418   -6.1955   -2.8521 C.ar      1 <0>        -0.1000
      4 C4         -0.5823   -5.8019   -1.5767 C.ar      1 <0>        -0.0799
      5 C5         -0.0241   -4.5543   -1.3700 C.ar      1 <0>        -0.0595
      6 C6          0.1751   -3.7005   -2.4387 C.ar      1 <0>        -0.0571
      7 C7         -0.1805   -4.0958   -3.7148 C.ar      1 <0>        -0.1026
      8 N1          0.3386   -4.1558   -0.0800 N.4       1 <0>        -0.2860
      9 N2          1.6004   -4.6003    0.1960 N.2       1 <0>        -0.2921
     10 C8          1.8001   -5.4184    1.1903 C.2       1 <0>         0.1943
     11 C9          0.7157   -5.8020    2.1157 C.2       1 <0>         0.0962
     12 N3          0.3974   -7.0381    2.2711 N.2       1 <0>        -0.3725
     13 C10         0.8937   -8.0838    1.5712 C.ar      1 <0>         0.0253
     14 C11        -0.0403   -9.0651    1.1780 C.ar      1 <0>        -0.0539
     15 C12         0.3593  -10.1710    0.4705 C.ar      1 <0>        -0.1133
     16 C13         1.6952  -10.3342    0.1352 C.ar      1 <0>        -0.0592
     17 C14         2.6207   -9.3873    0.5072 C.ar      1 <0>        -0.1299
     18 C15         2.2371   -8.2482    1.2252 C.ar      1 <0>         0.1322
     19 N4          3.2446   -7.3547    1.5333 N.am      1 <0>        -0.6329
     20 H1          4.0940   -7.7215    1.8248 H         1 <0>         0.4367
     21 C16         3.1384   -6.0274    1.4561 C.2       1 <0>         0.5758
     22 O1          4.1187   -5.3251    1.6028 O.2       1 <0>        -0.4504
     23 C17        -0.0241   -4.7370    2.8834 C.3       1 <0>        -0.1281
     24 H2         -0.2937   -6.2739   -5.7869 H         1 <0>         0.0913
     25 H3         -1.9829   -6.4537   -5.2553 H         1 <0>         0.0828
     26 H4         -1.4130   -4.8943   -5.8972 H         1 <0>         0.0839
     27 H5         -1.3780   -7.1703   -3.0137 H         1 <0>         0.1516
     28 H6         -0.7380   -6.4690   -0.7417 H         1 <0>         0.1354
     29 H7          0.6109   -2.7256   -2.2772 H         1 <0>         0.1530
     30 H8         -0.0214   -3.4302   -4.5503 H         1 <0>         0.1543
     31 H9          0.3161   -3.1489   -0.0202 H         1 <0>         0.4521
     32 H10        -1.0820   -8.9445    1.4365 H         1 <0>         0.1485
     33 H11        -0.3663  -10.9143    0.1752 H         1 <0>         0.1487
     34 H12         2.0092  -11.2065   -0.4187 H         1 <0>         0.1481
     35 H13         3.6585   -9.5244    0.2416 H         1 <0>         0.1460
     36 H14        -0.9131   -4.4394    2.3273 H         1 <0>         0.0934
     37 H15        -0.3189   -5.1293    3.8567 H         1 <0>         0.1242
     38 H16         0.6245   -3.8720    3.0216 H         1 <0>         0.0965
     39 H17        -0.3092   -4.5470    0.5874 H         1 <0>         0.4006
@<TRIPOS>BOND
     1    1    2 1
     2    1   24 1
     3    1   25 1
     4    1   26 1
     5    2    7 ar
     6    2    3 ar
     7    3    4 ar
     8    3   27 1
     9    4    5 ar
    10    4   28 1
    11    5    6 ar
    12    5    8 1
    13    6    7 ar
    14    6   29 1
    15    7   30 1
    16    8    9 1
    17    8   31 1
    18    8   39 1
    19    9   10 2
    20   10   21 1
    21   10   11 1
    22   11   12 2
    23   11   23 1
    24   12   13 1
    25   13   18 ar
    26   13   14 ar
    27   14   15 ar
    28   14   32 1
    29   15   16 ar
    30   15   33 1
    31   16   17 ar
    32   16   34 1
    33   17   18 ar
    34   17   35 1
    35   18   19 1
    36   19   20 1
    37   19   21 am
    38   21   22 2
    39   23   36 1
    40   23   37 1
    41   23   38 1
@<TRIPOS>MOLECULE
ZINC09949781
   41    43     0     0     0
SMALL
USER_CHARGES
2-[4-(5-fluoro-2-methoxy-phenyl)thiazol-2-yl]-3-(2-hydroxyphenyl)-prop-2-enamide
@<TRIPOS>ATOM
      1 C1          8.0230    0.2641    0.2543 C.3       1 <0>         0.0140
      2 O1          7.7094    1.6582    0.2448 O.3       1 <0>        -0.2856
      3 C2          8.7548    2.5261    0.2828 C.ar      1 <0>         0.1518
      4 C3         10.0538    2.0473    0.3228 C.ar      1 <0>        -0.1822
      5 C4         11.1168    2.9299    0.3672 C.ar      1 <0>        -0.1020
      6 C5         10.8903    4.2968    0.3670 C.ar      1 <0>         0.0644
      7 C6          9.5988    4.7871    0.3215 C.ar      1 <0>        -0.1000
      8 C7          8.5220    3.9044    0.2761 C.ar      1 <0>        -0.0345
      9 C8          7.1339    4.4249    0.2271 C.2       1 <0>         0.1115
     10 C9          6.9017    5.7759    0.2261 C.2       1 <0>        -0.1945
     11 S1          5.1152    5.8056    0.1532 S.3       1 <0>         0.0443
     12 C10         4.8635    4.0359    0.1409 C.2       1 <0>         0.1529
     13 N1          6.1114    3.5914    0.1846 N.2       1 <0>        -0.4787
     14 C11         3.6029    3.2733    0.0892 C.2       1 <0>        -0.1159
     15 C12         2.4081    3.9319    0.0488 C.2       1 <0>         0.0442
     16 C13         1.1555    3.1877    0.2067 C.ar      1 <0>        -0.1118
     17 C14         1.0333    2.2171    1.2096 C.ar      1 <0>        -0.0123
     18 C15        -0.1473    1.5226    1.3516 C.ar      1 <0>        -0.1412
     19 C16        -1.2141    1.7747    0.5034 C.ar      1 <0>        -0.0788
     20 C17        -1.1108    2.7328   -0.4866 C.ar      1 <0>        -0.1599
     21 C18         0.0681    3.4431   -0.6467 C.ar      1 <0>         0.1372
     22 O2          0.1723    4.3806   -1.6220 O.3       1 <0>        -0.4971
     23 C19         3.6327    1.8023    0.0812 C.2       1 <0>         0.5682
     24 O3          2.6062    1.1741   -0.0955 O.2       1 <0>        -0.5310
     25 N2          4.7975    1.1509    0.2697 N.am      1 <0>        -0.8411
     26 F1         11.9346    5.1527    0.4109 F         1 <0>        -0.1363
     27 H1          8.6351    0.0234   -0.6148 H         1 <0>         0.0602
     28 H2          8.5722    0.0214    1.1640 H         1 <0>         0.0601
     29 H3          7.1007   -0.3160    0.2210 H         1 <0>         0.0996
     30 H4         10.2364    0.9828    0.3236 H         1 <0>         0.1434
     31 H5         12.1281    2.5524    0.4025 H         1 <0>         0.1422
     32 H6          9.4247    5.8530    0.3207 H         1 <0>         0.1455
     33 H7          7.6038    6.5959    0.2567 H         1 <0>         0.2038
     34 H8          2.3857    5.0014   -0.0996 H         1 <0>         0.1441
     35 H9          1.8635    2.0137    1.8698 H         1 <0>         0.1198
     36 H10        -0.2409    0.7745    2.1249 H         1 <0>         0.1259
     37 H11        -2.1342    1.2212    0.6200 H         1 <0>         0.1271
     38 H12        -1.9491    2.9255   -1.1398 H         1 <0>         0.1305
     39 H13         0.4977    4.0366   -2.4651 H         1 <0>         0.3936
     40 H14         5.6161    1.6519    0.4107 H         1 <0>         0.4224
     41 H15         4.8172    0.1811    0.2645 H         1 <0>         0.3965
@<TRIPOS>BOND
     1    1    2 1
     2    1   27 1
     3    1   28 1
     4    1   29 1
     5    2    3 1
     6    3    8 ar
     7    3    4 ar
     8    4    5 ar
     9    4   30 1
    10    5    6 ar
    11    5   31 1
    12    6    7 ar
    13    6   26 1
    14    7    8 ar
    15    7   32 1
    16    8    9 1
    17    9   13 1
    18    9   10 2
    19   10   11 1
    20   10   33 1
    21   11   12 1
    22   12   13 2
    23   12   14 1
    24   14   15 2
    25   14   23 1
    26   15   16 1
    27   15   34 1
    28   16   21 ar
    29   16   17 ar
    30   17   18 ar
    31   17   35 1
    32   18   19 ar
    33   18   36 1
    34   19   20 ar
    35   19   37 1
    36   20   21 ar
    37   20   38 1
    38   21   22 1
    39   22   39 1
    40   23   24 2
    41   23   25 am
    42   25   40 1
    43   25   41 1
@<TRIPOS>MOLECULE
ZINC36296376
   36    37     0     0     0
SMALL
USER_CHARGES

@<TRIPOS>ATOM
      1 C1          0.1526    1.6913    0.1435 C.3       1 <0>        -0.1049
      2 C2          0.2578    0.1929    0.0222 C.ar      1 <0>        -0.1831
      3 C3          0.4280   -0.3937   -1.2241 C.ar      1 <0>         0.2387
      4 C4          0.5246   -1.7756   -1.3324 C.ar      1 <0>        -0.2086
      5 C5          0.4515   -2.5657   -0.2012 C.ar      1 <0>        -0.0457
      6 C6          0.2817   -1.9851    1.0407 C.ar      1 <0>        -0.2309
      7 C7          0.1905   -0.6030    1.1568 C.ar      1 <0>         0.1990
      8 N1          0.0256   -0.0163    2.4135 N.pl3     1 <0>        -1.0518
      9 S1          0.7644   -0.6781    3.7396 S.o2      1 <0>         2.6976
     10 O1          0.5199    0.2066    4.8245 O.2       1 <0>        -0.9468
     11 O2          0.3870   -2.0476    3.7736 O.2       1 <0>        -0.9416
     12 C8          2.5005   -0.6414    3.4413 C.ar      1 <0>        -0.7109
     13 C9          3.1157   -1.7091    2.8138 C.ar      1 <0>         0.0431
     14 C10         4.4768   -1.6834    2.5789 C.ar      1 <0>        -0.2226
     15 C11         5.2270   -0.5850    2.9727 C.ar      1 <0>         0.2130
     16 C12         4.6075    0.4858    3.6020 C.ar      1 <0>        -0.1507
     17 C13         3.2444    0.4572    3.8299 C.ar      1 <0>         0.0499
     18 Br1         5.6261    1.9850    4.1412 Br        1 <0>        -0.0204
     19 O3          6.5663   -0.5576    2.7431 O.3       1 <0>        -0.2951
     20 C14         7.1362   -1.6946    2.0914 C.3       1 <0>         0.0192
     21 N2          0.5016    0.4041   -2.3681 N.pl3     1 <0>        -0.8747
     22 H1          1.1476    2.1158    0.2776 H         1 <0>         0.0682
     23 H2         -0.2971    2.0985   -0.7621 H         1 <0>         0.0630
     24 H3         -0.4688    1.9435    1.0028 H         1 <0>         0.0644
     25 H4          0.6567   -2.2328   -2.3020 H         1 <0>         0.1226
     26 H5          0.5269   -3.6395   -0.2881 H         1 <0>         0.1296
     27 H6          0.2246   -2.6054    1.9229 H         1 <0>         0.1579
     28 H7         -0.5217    0.7788    2.5095 H         1 <0>         0.4267
     29 H8          2.5315   -2.5642    2.5073 H         1 <0>         0.1520
     30 H9          4.9566   -2.5180    2.0894 H         1 <0>         0.1491
     31 H10         2.7608    1.2917    4.3159 H         1 <0>         0.1562
     32 H11         6.9606   -2.5851    2.6949 H         1 <0>         0.0644
     33 H12         6.6738   -1.8220    1.1126 H         1 <0>         0.0639
     34 H13         8.2088   -1.5438    1.9697 H         1 <0>         0.1105
     35 H14         0.4337    1.3687   -2.2919 H         1 <0>         0.3987
     36 H15         0.6205   -0.0065   -3.2389 H         1 <0>         0.4001
@<TRIPOS>BOND
     1    1    2 1
     2    1   22 1
     3    1   23 1
     4    1   24 1
     5    2    7 ar
     6    2    3 ar
     7    3    4 ar
     8    3   21 1
     9    4    5 ar
    10    4   25 1
    11    5    6 ar
    12    5   26 1
    13    6    7 ar
    14    6   27 1
    15    7    8 1
    16    8    9 1
    17    8   28 1
    18    9   10 2
    19    9   11 2
    20    9   12 1
    21   12   17 ar
    22   12   13 ar
    23   13   14 ar
    24   13   29 1
    25   14   15 ar
    26   14   30 1
    27   15   16 ar
    28   15   19 1
    29   16   17 ar
    30   16   18 1
    31   17   31 1
    32   19   20 1
    33   20   32 1
    34   20   33 1
    35   20   34 1
    36   21   35 1
    37   21   36 1
@<TRIPOS>MOLECULE
ZINC53994232
   39    41     0     0     0
SMALL
USER_CHARGES

@<TRIPOS>ATOM
      1 C1          0.9867    1.5424   -0.3365 C.3       1 <0>        -0.1703
      2 C2          0.9561    0.0370   -0.2749 C.2       1 <0>         0.5057
      3 O1          1.6476   -0.5514    0.5298 O.2       1 <0>        -0.5150
      4 N1          0.1595   -0.6565   -1.1147 N.am      1 <0>        -0.6490
      5 C3          0.2262   -2.0664   -1.1479 C.2       1 <0>        -0.0565
      6 C4          0.6238   -2.8276   -2.2069 C.2       1 <0>         0.3823
      7 N2          0.5427   -4.1348   -1.8261 N.pl3     1 <0>        -0.3421
      8 N3          0.0847   -4.1715   -0.5031 N.2       1 <0>        -0.2849
      9 C5         -0.0998   -2.9374   -0.0922 C.2       1 <0>         0.0989
     10 S1         -0.6636   -2.4556    1.5061 S.3       1 <0>         0.1057
     11 C6         -0.6598   -3.9562    2.4297 C.ar      1 <0>        -0.1452
     12 C7          0.5112   -4.3998    3.0323 C.ar      1 <0>        -0.0420
     13 C8          0.5110   -5.5762    3.7554 C.ar      1 <0>        -0.1215
     14 C9         -0.6538   -6.3132    3.8803 C.ar      1 <0>        -0.0037
     15 C10        -1.8216   -5.8739    3.2812 C.ar      1 <0>        -0.1218
     16 C11        -1.8291   -4.6955    2.5617 C.ar      1 <0>        -0.0442
     17 Cl1        -0.6499   -7.7919    4.7897 Cl        1 <0>        -0.0620
     18 C12         0.8607   -5.2447   -2.6187 C.ar      1 <0>         0.1640
     19 C13         0.6080   -5.2201   -3.9840 C.ar      1 <0>        -0.1486
     20 C14         0.9231   -6.3161   -4.7630 C.ar      1 <0>        -0.0923
     21 C15         1.4893   -7.4374   -4.1847 C.ar      1 <0>        -0.1239
     22 C16         1.7418   -7.4652   -2.8253 C.ar      1 <0>        -0.0937
     23 C17         1.4347   -6.3701   -2.0419 C.ar      1 <0>        -0.1108
     24 N4          1.0375   -2.3558   -3.4525 N.pl3     1 <0>        -0.8474
     25 H1          1.7568    1.8617   -1.0387 H         1 <0>         0.0937
     26 H2          0.0165    1.9123   -0.6682 H         1 <0>         0.0804
     27 H3          1.2089    1.9421    0.6530 H         1 <0>         0.0958
     28 H4         -0.4589   -0.1864   -1.6955 H         1 <0>         0.4031
     29 H5          1.4205   -3.8253    2.9349 H         1 <0>         0.1409
     30 H6          1.4208   -5.9217    4.2237 H         1 <0>         0.1396
     31 H7         -2.7289   -6.4514    3.3801 H         1 <0>         0.1400
     32 H8         -2.7417   -4.3509    2.0982 H         1 <0>         0.1408
     33 H9          0.1651   -4.3449   -4.4362 H         1 <0>         0.1290
     34 H10         0.7268   -6.2976   -5.8248 H         1 <0>         0.1344
     35 H11         1.7345   -8.2934   -4.7959 H         1 <0>         0.1312
     36 H12         2.1834   -8.3427   -2.3766 H         1 <0>         0.1338
     37 H13         1.6362   -6.3907   -0.9811 H         1 <0>         0.1337
     38 H14         1.0603   -1.4018   -3.6266 H         1 <0>         0.4168
     39 H15         1.3024   -2.9816   -4.1446 H         1 <0>         0.4051
@<TRIPOS>BOND
     1    1    2 1
     2    1   25 1
     3    1   26 1
     4    1   27 1
     5    2    3 2
     6    2    4 am
     7    4    5 1
     8    4   28 1
     9    5    9 1
    10    5    6 2
    11    6    7 1
    12    6   24 1
    13    7    8 1
    14    7   18 1
    15    8    9 2
    16    9   10 1
    17   10   11 1
    18   11   16 ar
    19   11   12 ar
    20   12   13 ar
    21   12   29 1
    22   13   14 ar
    23   13   30 1
    24   14   15 ar
    25   14   17 1
    26   15   16 ar
    27   15   31 1
    28   16   32 1
    29   18   23 ar
    30   18   19 ar
    31   19   20 ar
    32   19   33 1
    33   20   21 ar
    34   20   34 1
    35   21   22 ar
    36   21   35 1
    37   22   23 ar
    38   22   36 1
    39   23   37 1
    40   24   38 1
    41   24   39 1
@<TRIPOS>MOLECULE
ZINC06290242
   37    38     0     0     0
SMALL
USER_CHARGES

@<TRIPOS>ATOM
      1 C1         -1.2653    1.1831    0.1820 C.3       1 <0>        -0.1169
      2 C2         -0.5844   -0.1578    0.0846 C.ar      1 <0>        -0.1025
      3 C3         -0.5697   -0.8400   -1.1164 C.ar      1 <0>        -0.0735
      4 C4          0.0548   -2.0712   -1.2063 C.ar      1 <0>        -0.0986
      5 C5          0.6662   -2.6227   -0.0941 C.ar      1 <0>        -0.0767
      6 C6          0.6548   -1.9448    1.1089 C.ar      1 <0>        -0.1107
      7 C7          0.0336   -0.7060    1.2006 C.ar      1 <0>         0.1570
      8 N1          0.0256   -0.0140    2.4172 N.am      1 <0>        -0.6679
      9 C8         -0.0559   -0.6935    3.5783 C.2       1 <0>         0.5164
     10 O1         -0.0400   -1.9062    3.5737 O.2       1 <0>        -0.4884
     11 C9         -0.1667    0.0537    4.8823 C.3       1 <0>         0.0405
     12 O2         -0.2386   -0.8800    5.9617 O.3       1 <0>        -0.2841
     13 C10        -0.3424   -0.3673    7.2139 C.ar      1 <0>         0.1569
     14 C11        -0.3801    1.0099    7.3982 C.ar      1 <0>        -0.2194
     15 C12        -0.4854    1.5340    8.6672 C.ar      1 <0>        -0.0143
     16 C13        -0.5548    0.6793    9.7705 C.ar      1 <0>        -0.1787
     17 C14        -0.5170   -0.7046    9.5810 C.ar      1 <0>        -0.0430
     18 C15        -0.4165   -1.2209    8.3084 C.ar      1 <0>        -0.1531
     19 C16        -0.6672    1.2369   11.1325 C.2       1 <0>         0.5667
     20 O3         -0.6995    2.4413   11.2956 O.2       1 <0>        -0.5420
     21 N2         -0.7340    0.4109   12.1954 N.am      1 <0>        -0.8517
     22 Br1         0.0723   -3.0024   -2.8520 Br        1 <0>        -0.0468
     23 H1         -0.5503    1.9716   -0.0529 H         1 <0>         0.0767
     24 H2         -2.0942    1.2219   -0.5248 H         1 <0>         0.0767
     25 H3         -1.6439    1.3257    1.1941 H         1 <0>         0.0667
     26 H4         -1.0464   -0.4120   -1.9858 H         1 <0>         0.1384
     27 H5          1.1523   -3.5843   -0.1669 H         1 <0>         0.1379
     28 H6          1.1318   -2.3758    1.9767 H         1 <0>         0.1492
     29 H7          0.0787    0.9545    2.4246 H         1 <0>         0.4151
     30 H8          0.7079    0.6914    5.0112 H         1 <0>         0.1026
     31 H9         -1.0666    0.6687    4.8734 H         1 <0>         0.1027
     32 H10        -0.3264    1.6697    6.5449 H         1 <0>         0.1367
     33 H11        -0.5139    2.6042    8.8095 H         1 <0>         0.1421
     34 H12        -0.5704   -1.3684   10.4312 H         1 <0>         0.1361
     35 H13        -0.3913   -2.2905    8.1608 H         1 <0>         0.1421
     36 H14        -0.7082   -0.5500   12.0653 H         1 <0>         0.4009
     37 H15        -0.8078    0.7774   13.0905 H         1 <0>         0.4066
@<TRIPOS>BOND
     1    1    2 1
     2    1   23 1
     3    1   24 1
     4    1   25 1
     5    2    7 ar
     6    2    3 ar
     7    3    4 ar
     8    3   26 1
     9    4    5 ar
    10    4   22 1
    11    5    6 ar
    12    5   27 1
    13    6    7 ar
    14    6   28 1
    15    7    8 1
    16    8    9 am
    17    8   29 1
    18    9   10 2
    19    9   11 1
    20   11   12 1
    21   11   30 1
    22   11   31 1
    23   12   13 1
    24   13   18 ar
    25   13   14 ar
    26   14   15 ar
    27   14   32 1
    28   15   16 ar
    29   15   33 1
    30   16   17 ar
    31   16   19 1
    32   17   18 ar
    33   17   34 1
    34   18   35 1
    35   19   20 2
    36   19   21 am
    37   21   36 1
    38   21   37 1
@<TRIPOS>MOLECULE
ZINC67042687
   41    42     0     0     0
SMALL
USER_CHARGES

@<TRIPOS>ATOM
      1 C1         -0.0184    1.5028    0.0103 C.3       1 <0>        -0.1113
      2 C2          0.0021   -0.0041    0.0020 C.2       1 <0>        -0.0122
      3 C3          0.0067   -0.7285   -1.1658 C.2       1 <0>        -0.1853
      4 C4          0.0259   -2.0828   -1.1013 C.2       1 <0>        -0.2023
      5 S1          0.0382   -2.4164    0.5452 S.3       1 <0>         0.1952
      6 C5          0.0233   -0.7477    1.1721 C.2       1 <0>        -0.2736
      7 C6          0.0302   -0.2828    2.5623 C.2       1 <0>         0.6146
      8 O1          0.0163    0.9096    2.8053 O.2       1 <0>        -0.5118
      9 N1          0.0519   -1.1760    3.5714 N.am      1 <0>        -0.5287
     10 N2          0.0584   -0.7317    4.9001 N.am      1 <0>        -0.5264
     11 C7          0.0802   -1.6248    5.9092 C.2       1 <0>         0.7163
     12 O2          0.0859   -1.2392    7.0623 O.2       1 <0>        -0.5616
     13 N3          0.0956   -2.9454    5.6401 N.am      1 <0>        -0.7399
     14 C8          0.1192   -3.9162    6.7370 C.3       1 <0>         0.1689
     15 H1         -0.4676   -3.5346    7.5726 H         1 <0>         0.1045
     16 C9          1.5637   -4.1405    7.1885 C.3       1 <0>        -0.1376
     17 C10         2.3873   -4.6760    6.0156 C.3       1 <0>        -0.1138
     18 C11         1.7911   -6.0012    5.5368 C.3       1 <0>        -0.1217
     19 C12         0.3466   -5.7769    5.0852 C.3       1 <0>        -0.1335
     20 H2          0.3290   -5.0546    4.2691 H         1 <0>         0.1063
     21 C13        -0.4771   -5.2413    6.2581 C.3       1 <0>        -0.1305
     22 C14        -0.2497   -7.1021    4.6063 C.3       1 <0>         0.4538
     23 F1         -0.2271   -8.0292    5.6538 F         1 <0>        -0.1793
     24 F2         -1.5705   -6.8970    4.1934 F         1 <0>        -0.1822
     25 F3          0.5034   -7.5918    3.5338 F         1 <0>        -0.1815
     26 H3          1.0042    1.8801    0.0026 H         1 <0>         0.0799
     27 H4         -0.5455    1.8639   -0.8728 H         1 <0>         0.0700
     28 H5         -0.5286    1.8543    0.9071 H         1 <0>         0.0901
     29 H6         -0.0051   -0.2261   -2.1218 H         1 <0>         0.1437
     30 H7          0.0316   -2.7861   -1.9208 H         1 <0>         0.1935
     31 H8          0.0630   -2.1264    3.3777 H         1 <0>         0.4157
     32 H9          0.0474    0.2187    5.0937 H         1 <0>         0.4463
     33 H10         0.0910   -3.2530    4.7202 H         1 <0>         0.3872
     34 H11         1.9885   -3.1964    7.5297 H         1 <0>         0.0777
     35 H12         1.5813   -4.8628    8.0046 H         1 <0>         0.0807
     36 H13         2.3698   -3.9537    5.1995 H         1 <0>         0.0637
     37 H14         3.4165   -4.8358    6.3373 H         1 <0>         0.0756
     38 H15         2.3779   -6.3828    4.7012 H         1 <0>         0.0800
     39 H16         1.8087   -6.7235    6.3529 H         1 <0>         0.0823
     40 H17        -0.4595   -5.9637    7.0742 H         1 <0>         0.1002
     41 H18        -1.5062   -5.0816    5.9364 H         1 <0>         0.0874
@<TRIPOS>BOND
     1    1    2 1
     2    1   26 1
     3    1   27 1
     4    1   28 1
     5    2    6 2
     6    2    3 1
     7    3    4 2
     8    3   29 1
     9    4    5 1
    10    4   30 1
    11    5    6 1
    12    6    7 1
    13    7    8 2
    14    7    9 am
    15    9   10 1
    16    9   31 1
    17   10   11 am
    18   10   32 1
    19   11   12 2
    20   11   13 am
    21   13   14 1
    22   13   33 1
    23   14   15 1
    24   14   21 1
    25   14   16 1
    26   16   17 1
    27   16   34 1
    28   16   35 1
    29   17   18 1
    30   17   36 1
    31   17   37 1
    32   18   19 1
    33   18   38 1
    34   18   39 1
    35   19   20 1
    36   19   21 1
    37   19   22 1
    38   21   40 1
    39   21   41 1
    40   22   23 1
    41   22   24 1
    42   22   25 1
@<TRIPOS>MOLECULE
ZINC37282778
   44    46     0     0     0
SMALL
USER_CHARGES

@<TRIPOS>ATOM
      1 C1         -1.5839    1.2650    0.8203 C.3       1 <0>        -0.1274
      2 C2         -1.0203   -0.0638    0.3868 C.2       1 <0>        -0.0072
      3 C3         -1.0665   -0.4605   -1.0128 C.ar      1 <0>        -0.1125
      4 C4         -1.5941    0.2488   -2.1178 C.ar      1 <0>        -0.0583
      5 C5         -1.5519   -0.2821   -3.3686 C.ar      1 <0>        -0.1167
      6 C6         -0.9936   -1.5306   -3.6090 C.ar      1 <0>        -0.0656
      7 C7         -0.4676   -2.2542   -2.5574 C.ar      1 <0>        -0.0843
      8 C8         -0.5048   -1.7269   -1.2843 C.ar      1 <0>        -0.0834
      9 S1          0.0361   -2.2932    0.3076 S.3       1 <0>         0.0338
     10 C9         -0.4661   -0.8900    1.2856 C.2       1 <0>        -0.2530
     11 C10        -0.3070   -0.6824    2.7698 C.3       1 <0>         0.1249
     12 H1         -0.4716    0.3681    3.0094 H         1 <0>         0.1579
     13 C11        -1.3281   -1.5422    3.5173 C.3       1 <0>        -0.1827
     14 N1          1.0505   -1.0704    3.1757 N.4       1 <0>        -0.5164
     15 C12         1.2506   -0.7411    4.5933 C.3       1 <0>         0.0065
     16 H2          0.3053   -0.8343    5.1278 H         1 <0>         0.1781
     17 C13         1.7737    0.6918    4.7195 C.3       1 <0>        -0.1406
     18 C14         2.6920    1.0330    3.5600 C.3       1 <0>        -0.1468
     19 C15         3.9894    0.2455    3.5535 C.3       1 <0>        -0.1607
     20 C16         3.7256   -1.2380    3.2885 C.3       1 <0>         0.0857
     21 N2          3.4323   -1.9005    4.5698 N.am      1 <0>        -0.7177
     22 C17         2.2708   -1.6842    5.1955 C.2       1 <0>         0.5051
     23 O1          2.0345   -2.2378    6.2484 O.2       1 <0>        -0.4811
     24 H3         -0.8049    2.0254    0.7653 H         1 <0>         0.0880
     25 H4         -2.4086    1.5415    0.1634 H         1 <0>         0.0856
     26 H5         -1.9458    1.1890    1.8456 H         1 <0>         0.0760
     27 H6         -2.0356    1.2226   -1.9657 H         1 <0>         0.1336
     28 H7         -1.9624    0.2800   -4.1944 H         1 <0>         0.1391
     29 H8         -0.9713   -1.9327   -4.6111 H         1 <0>         0.1459
     30 H9         -0.0309   -3.2266   -2.7309 H         1 <0>         0.1399
     31 H10        -1.2896   -1.3092    4.5815 H         1 <0>         0.0924
     32 H11        -2.3276   -1.3335    3.1357 H         1 <0>         0.1142
     33 H12        -1.0948   -2.5963    3.3675 H         1 <0>         0.0867
     34 H13         1.1711   -2.0630    3.0407 H         1 <0>         0.4261
     35 H14         0.9305    1.3825    4.7248 H         1 <0>         0.1114
     36 H15         2.3244    0.7917    5.6548 H         1 <0>         0.1194
     37 H16         2.1621    0.8383    2.6276 H         1 <0>         0.0581
     38 H17         2.9302    2.0957    3.6058 H         1 <0>         0.1122
     39 H18         4.6431    0.6380    2.7746 H         1 <0>         0.1041
     40 H19         4.4800    0.3550    4.5207 H         1 <0>         0.0978
     41 H20         2.8724   -1.3437    2.6184 H         1 <0>         0.0502
     42 H21         4.6076   -1.6911    2.8359 H         1 <0>         0.1247
     43 H22         4.0854   -2.5007    4.9625 H         1 <0>         0.4260
     44 H23         1.7248   -0.5704    2.6158 H         1 <0>         0.4311
@<TRIPOS>BOND
     1    1    2 1
     2    1   24 1
     3    1   25 1
     4    1   26 1
     5    2   10 2
     6    2    3 1
     7    3    8 ar
     8    3    4 ar
     9    4    5 ar
    10    4   27 1
    11    5    6 ar
    12    5   28 1
    13    6    7 ar
    14    6   29 1
    15    7    8 ar
    16    7   30 1
    17    8    9 1
    18    9   10 1
    19   10   11 1
    20   11   12 1
    21   11   13 1
    22   11   14 1
    23   13   31 1
    24   13   32 1
    25   13   33 1
    26   14   15 1
    27   14   34 1
    28   14   44 1
    29   15   16 1
    30   15   22 1
    31   15   17 1
    32   17   18 1
    33   17   35 1
    34   17   36 1
    35   18   19 1
    36   18   37 1
    37   18   38 1
    38   19   20 1
    39   19   39 1
    40   19   40 1
    41   20   21 1
    42   20   41 1
    43   20   42 1
    44   21   22 am
    45   21   43 1
    46   22   23 2
@<TRIPOS>MOLECULE
ZINC41181590
   41    43     0     0     0
SMALL
USER_CHARGES

@<TRIPOS>ATOM
      1 C1         -0.0041    2.2969   -0.4652 C.ar      1 <0>        -0.0661
      2 C2          1.2487    2.8483   -0.3856 C.ar      1 <0>        -0.0990
      3 C3          2.3733    2.0229   -0.3351 C.ar      1 <0>        -0.0112
      4 C4          2.2240    0.6354   -0.3659 C.ar      1 <0>        -0.0860
      5 C5          0.9722    0.0816   -0.4454 C.ar      1 <0>        -0.0714
      6 C6         -0.1550    0.9073   -0.4956 C.ar      1 <0>        -0.0043
      7 C7         -1.4630    0.3301   -0.5782 C.1       1 <0>         0.2375
      8 N1         -2.5005   -0.1277   -0.6437 N.1       1 <0>        -0.3914
      9 C8          3.7264    2.6200   -0.2492 C.2       1 <0>         0.1003
     10 C9          3.9118    3.9710   -0.1099 C.2       1 <0>        -0.1818
     11 S1          5.6947    4.0558   -0.0665 S.3       1 <0>         0.2179
     12 C10         6.0126    2.4111   -0.2256 C.2       1 <0>        -0.0593
     13 N2          4.8227    1.8755   -0.2974 N.2       1 <0>        -0.4721
     14 C11         7.3510    1.7197   -0.2693 C.3       1 <0>         0.1912
     15 C12         7.4056    0.6679    0.8552 C.3       1 <0>        -0.1252
     16 C13         8.8416    0.2125    1.1781 C.3       1 <0>        -0.1362
     17 C14         9.6723    0.0066   -0.0595 C.3       1 <0>        -0.1298
     18 C15        10.4545    1.3047   -0.3461 C.3       1 <0>        -0.1493
     19 C16         9.6366    2.3108   -1.0071 C.3       1 <0>        -0.1332
     20 C17         8.4373    2.7534   -0.1441 C.3       1 <0>        -0.1479
     21 N3          7.4908    1.0375   -1.5628 N.4       1 <0>        -0.6453
     22 H1         -0.8743    2.9357   -0.4997 H         1 <0>         0.1433
     23 H2          1.3656    3.9218   -0.3625 H         1 <0>         0.1380
     24 H3          3.0949   -0.0021   -0.3275 H         1 <0>         0.1393
     25 H4          0.8569   -0.9920   -0.4696 H         1 <0>         0.1400
     26 H5          3.1819    4.7643   -0.0447 H         1 <0>         0.2137
     27 H6          6.9606    1.0922    1.7552 H         1 <0>         0.1108
     28 H7          6.8210   -0.2008    0.5526 H         1 <0>         0.0950
     29 H8          9.3193    0.9681    1.8018 H         1 <0>         0.0864
     30 H9          8.7979   -0.7243    1.7335 H         1 <0>         0.0909
     31 H10        10.3713   -0.8142    0.1011 H         1 <0>         0.0979
     32 H11         9.0216   -0.2227   -0.9034 H         1 <0>         0.0412
     33 H12        10.8210    1.7113    0.5964 H         1 <0>         0.0908
     34 H13        11.3076    1.0696   -0.9825 H         1 <0>         0.0867
     35 H14        10.2552    3.1815   -1.2247 H         1 <0>         0.1080
     36 H15         9.2638    1.9015   -1.9461 H         1 <0>         0.0513
     37 H16         8.0684    3.7167   -0.4962 H         1 <0>         0.0994
     38 H17         8.7465    2.8352    0.8980 H         1 <0>         0.1260
     39 H18         7.2226    1.6660   -2.3052 H         1 <0>         0.4296
     40 H19         8.4507    0.7548   -1.6918 H         1 <0>         0.4400
     41 H20         6.8951    0.2233   -1.5797 H         1 <0>         0.4340
@<TRIPOS>BOND
     1    1    6 ar
     2    1    2 ar
     3    1   22 1
     4    2    3 ar
     5    2   23 1
     6    3    4 ar
     7    3    9 1
     8    4    5 ar
     9    4   24 1
    10    5    6 ar
    11    5   25 1
    12    6    7 1
    13    7    8 3
    14    9   13 1
    15    9   10 2
    16   10   11 1
    17   10   26 1
    18   11   12 1
    19   12   13 2
    20   12   14 1
    21   14   20 1
    22   14   15 1
    23   14   21 1
    24   15   16 1
    25   15   27 1
    26   15   28 1
    27   16   17 1
    28   16   29 1
    29   16   30 1
    30   17   18 1
    31   17   31 1
    32   17   32 1
    33   18   19 1
    34   18   33 1
    35   18   34 1
    36   19   20 1
    37   19   35 1
    38   19   36 1
    39   20   37 1
    40   20   38 1
    41   21   39 1
    42   21   40 1
    43   21   41 1
@<TRIPOS>MOLECULE
ZINC50887790
   38    39     0     0     0
SMALL
USER_CHARGES

@<TRIPOS>ATOM
      1 C1         -0.1569    1.6316   -0.0159 C.3       1 <0>        -0.1594
      2 C2         -0.1055    0.1027    0.0124 C.3       1 <0>        -0.1253
      3 C3          0.6035   -0.4070   -1.2439 C.3       1 <0>        -0.1364
      4 C4          0.6549   -1.9359   -1.2157 C.3       1 <0>        -0.1456
      5 C5          1.3639   -2.4457   -2.4720 C.3       1 <0>         0.0163
      6 H1          0.8698   -2.0437   -3.3565 H         1 <0>         0.1439
      7 C6          1.3058   -3.9742   -2.5057 C.3       1 <0>        -0.1860
      8 N1          2.7665   -2.0093   -2.4538 N.4       1 <0>        -0.4913
      9 C7          3.4141   -2.3899   -3.7163 C.3       1 <0>         0.0468
     10 H2          3.2376   -3.4435   -3.9324 H         1 <0>         0.1895
     11 C8          2.9129   -1.5255   -4.8502 C.ar      1 <0>        -0.1994
     12 C9          1.6657   -1.3355   -5.4021 C.ar      1 <0>        -0.0348
     13 C10         1.5053   -0.4589   -6.4608 C.ar      1 <0>        -0.1178
     14 C11         2.5993    0.2236   -6.9608 C.ar      1 <0>        -0.0216
     15 C12         3.8506    0.0349   -6.4100 C.ar      1 <0>        -0.1101
     16 C13         4.0196   -0.8465   -5.3428 C.ar      1 <0>         0.1922
     17 N2          5.1630   -1.2033   -4.6263 N.am      1 <0>        -0.6423
     18 C14         4.8993   -2.1019   -3.6584 C.2       1 <0>         0.5218
     19 O1          5.6979   -2.5882   -2.8859 O.2       1 <0>        -0.4408
     20 Br1         5.3386    0.9733   -7.1038 Br        1 <0>        -0.0079
     21 H3          0.8577    2.0287   -0.0469 H         1 <0>         0.0545
     22 H4         -0.7030    1.9605   -0.9000 H         1 <0>         0.0578
     23 H5         -0.6620    1.9948    0.8792 H         1 <0>         0.0634
     24 H6          0.4406   -0.2262    0.8965 H         1 <0>         0.0676
     25 H7         -1.1201   -0.2944    0.0434 H         1 <0>         0.0721
     26 H8          0.0574   -0.0781   -2.1281 H         1 <0>         0.0802
     27 H9          1.6181   -0.0099   -1.2749 H         1 <0>         0.0548
     28 H10         1.2010   -2.2648   -0.3315 H         1 <0>         0.0924
     29 H11        -0.3597   -2.3330   -1.1847 H         1 <0>         0.1185
     30 H12         0.2690   -4.3002   -2.4235 H         1 <0>         0.1130
     31 H13         1.7262   -4.3331   -3.4451 H         1 <0>         0.0821
     32 H14         1.8808   -4.3781   -1.6725 H         1 <0>         0.0869
     33 H15         2.8055   -1.0069   -2.3447 H         1 <0>         0.4299
     34 H16         0.8136   -1.8704   -5.0094 H         1 <0>         0.1467
     35 H17         0.5283   -0.3083   -6.8958 H         1 <0>         0.1573
     36 H18         2.4739    0.9077   -7.7871 H         1 <0>         0.1582
     37 H19         6.0469   -0.8464   -4.8058 H         1 <0>         0.4374
     38 H20         3.2460   -2.4504   -1.6835 H         1 <0>         0.4354
@<TRIPOS>BOND
     1    1    2 1
     2    1   21 1
     3    1   22 1
     4    1   23 1
     5    2    3 1
     6    2   24 1
     7    2   25 1
     8    3    4 1
     9    3   26 1
    10    3   27 1
    11    4    5 1
    12    4   28 1
    13    4   29 1
    14    5    6 1
    15    5    7 1
    16    5    8 1
    17    7   30 1
    18    7   31 1
    19    7   32 1
    20    8    9 1
    21    8   33 1
    22    8   38 1
    23    9   10 1
    24    9   18 1
    25    9   11 1
    26   11   16 ar
    27   11   12 ar
    28   12   13 ar
    29   12   34 1
    30   13   14 ar
    31   13   35 1
    32   14   15 ar
    33   14   36 1
    34   15   16 ar
    35   15   20 1
    36   16   17 1
    37   17   18 am
    38   17   37 1
    39   18   19 2
@<TRIPOS>MOLECULE
ZINC58624916
   37    38     0     0     0
SMALL
USER_CHARGES

@<TRIPOS>ATOM
      1 C1         -0.0017    1.4876   -0.0043 C.3       1 <0>        -0.0471
      2 N1          0.0155    0.0187    0.0006 N.4       1 <0>        -0.3119
      3 C2         -1.3635   -0.4871    0.0227 C.3       1 <0>        -0.0479
      4 C3          0.6631   -0.4436   -1.1489 C.ar      1 <0>        -0.1387
      5 C4          0.1225   -0.1933   -2.3950 C.ar      1 <0>        -0.0459
      6 C5          0.7620   -0.6505   -3.5324 C.ar      1 <0>        -0.1496
      7 C6          1.9449   -1.3594   -3.4267 C.ar      1 <0>        -0.0233
      8 C7          2.4912   -1.6127   -2.1841 C.ar      1 <0>        -0.1753
      9 C8          1.8539   -1.1502   -1.0395 C.ar      1 <0>         0.2530
     10 N2          2.4063   -1.4002    0.2188 N.pl3     1 <0>        -0.7354
     11 C9          3.7189   -2.0416    0.3281 C.3       1 <0>         0.1745
     12 C10         4.0830   -2.1960    1.7823 C.ar      1 <0>        -0.1481
     13 C11         4.9437   -1.2945    2.3791 C.ar      1 <0>        -0.0689
     14 C12         5.2783   -1.4352    3.7129 C.ar      1 <0>        -0.1200
     15 C13         4.7527   -2.4777    4.4540 C.ar      1 <0>        -0.0594
     16 C14         3.8911   -3.3817    3.8623 C.ar      1 <0>        -0.1247
     17 C15         3.5500   -3.2395    2.5240 C.ar      1 <0>         0.1521
     18 O1          2.6988   -4.1241    1.9407 O.3       1 <0>        -0.4857
     19 Br1         3.1729   -4.8076    4.8758 Br        1 <0>        -0.0202
     20 H1          1.0216    1.8628   -0.0206 H         1 <0>         0.1218
     21 H2         -0.5327    1.8418   -0.8878 H         1 <0>         0.1241
     22 H3         -0.5066    1.8480    0.8920 H         1 <0>         0.1249
     23 H4         -1.8945   -0.1329   -0.8609 H         1 <0>         0.1243
     24 H5         -1.3507   -1.5770    0.0263 H         1 <0>         0.1236
     25 H6         -1.8684   -0.1267    0.9189 H         1 <0>         0.1254
     26 H7         -0.8011    0.3599   -2.4811 H         1 <0>         0.1417
     27 H8          0.3368   -0.4540   -4.5055 H         1 <0>         0.1450
     28 H9          2.4418   -1.7154   -4.3171 H         1 <0>         0.1452
     29 H10         3.4147   -2.1666   -2.1022 H         1 <0>         0.1451
     30 H11         1.9210   -1.1490    1.0202 H         1 <0>         0.3913
     31 H12         3.6839   -3.0235   -0.1439 H         1 <0>         0.0836
     32 H13         4.4671   -1.4253   -0.1703 H         1 <0>         0.0859
     33 H14         5.3557   -0.4794    1.8026 H         1 <0>         0.1380
     34 H15         5.9518   -0.7298    4.1770 H         1 <0>         0.1428
     35 H16         5.0159   -2.5856    5.4959 H         1 <0>         0.1440
     36 H17         3.1374   -4.8903    1.5463 H         1 <0>         0.4007
     37 H18         0.5072   -0.3092    0.8185 H         1 <0>         0.4151
@<TRIPOS>BOND
     1    1    2 1
     2    1   20 1
     3    1   21 1
     4    1   22 1
     5    2    3 1
     6    2    4 1
     7    2   37 1
     8    3   23 1
     9    3   24 1
    10    3   25 1
    11    4    9 ar
    12    4    5 ar
    13    5    6 ar
    14    5   26 1
    15    6    7 ar
    16    6   27 1
    17    7    8 ar
    18    7   28 1
    19    8    9 ar
    20    8   29 1
    21    9   10 1
    22   10   11 1
    23   10   30 1
    24   11   12 1
    25   11   31 1
    26   11   32 1
    27   12   17 ar
    28   12   13 ar
    29   13   14 ar
    30   13   33 1
    31   14   15 ar
    32   14   34 1
    33   15   16 ar
    34   15   35 1
    35   16   17 ar
    36   16   19 1
    37   17   18 1
    38   18   36 1
@<TRIPOS>MOLECULE
ZINC63016312
   52    53     0     0     0
SMALL
USER_CHARGES

@<TRIPOS>ATOM
      1 C1          1.4295    2.8664   -1.5905 C.3       1 <0>        -0.6525
      2 S1          1.0700    1.1508   -1.1238 S.o2      1 <0>         2.4183
      3 O1          1.8477    0.8236    0.0197 O.2       1 <0>        -0.9367
      4 O2         -0.3403    0.9855   -1.0707 O.2       1 <0>        -0.9317
      5 C2          1.7052    0.2092   -2.5382 C.3       1 <0>        -0.6230
      6 C3          1.4763   -1.2848   -2.3006 C.3       1 <0>        -0.1312
      7 C4          2.0121   -2.0789   -3.4935 C.3       1 <0>        -0.1346
      8 C5          1.7832   -3.5729   -3.2559 C.3       1 <0>         0.0682
      9 C6          0.2827   -3.8459   -3.1343 C.3       1 <0>        -0.1416
     10 C7          0.0538   -5.3399   -2.8966 C.3       1 <0>        -0.1361
     11 C8          0.6234   -6.1365   -4.0722 C.3       1 <0>        -0.1329
     12 C9          2.1239   -5.8634   -4.1939 C.3       1 <0>        -0.1313
     13 C10         2.3528   -4.3694   -4.4315 C.3       1 <0>        -0.0949
     14 H1          1.8527   -4.0671   -5.3516 H         1 <0>         0.1213
     15 C11         3.8533   -4.0964   -4.5531 C.3       1 <0>        -0.1064
     16 C12         4.3370   -4.5158   -5.9428 C.3       1 <0>        -0.1116
     17 C13         5.8375   -4.2428   -6.0645 C.3       1 <0>        -0.1241
     18 C14         6.5896   -5.0435   -4.9995 C.3       1 <0>        -0.1242
     19 C15         6.1059   -4.6242   -3.6099 C.3       1 <0>        -0.1227
     20 C16         4.6054   -4.8972   -3.4882 C.3       1 <0>        -0.1329
     21 N1          2.4572   -3.9804   -2.0159 N.4       1 <0>        -0.6416
     22 H2          2.5038    2.9879   -1.7286 H         1 <0>         0.1308
     23 H3          0.9142    3.1055   -2.5208 H         1 <0>         0.1319
     24 H4          1.0864    3.5368   -0.8025 H         1 <0>         0.1373
     25 H5          1.1828    0.5173   -3.4439 H         1 <0>         0.1427
     26 H6          2.7724    0.3997   -2.6517 H         1 <0>         0.1387
     27 H7          1.9988   -1.5929   -1.3949 H         1 <0>         0.0742
     28 H8          0.4091   -1.4753   -2.1871 H         1 <0>         0.0999
     29 H9          1.4897   -1.7708   -4.3992 H         1 <0>         0.1190
     30 H10         3.0793   -1.8884   -3.6071 H         1 <0>         0.0998
     31 H11        -0.1231   -3.2784   -2.2968 H         1 <0>         0.0942
     32 H12        -0.2174   -3.5436   -4.0543 H         1 <0>         0.1147
     33 H13         0.5539   -5.6423   -1.9765 H         1 <0>         0.0581
     34 H14        -1.0152   -5.5344   -2.8099 H         1 <0>         0.0930
     35 H15         0.4603   -7.2008   -3.9029 H         1 <0>         0.0811
     36 H16         0.1233   -5.8341   -4.9923 H         1 <0>         0.0795
     37 H17         2.6240   -6.1658   -3.2738 H         1 <0>         0.0615
     38 H18         2.5297   -6.4309   -5.0313 H         1 <0>         0.0956
     39 H19         4.0420   -3.0327   -4.4085 H         1 <0>         0.0881
     40 H20         4.1483   -5.5796   -6.0874 H         1 <0>         0.0703
     41 H21         3.8012   -3.9453   -6.7015 H         1 <0>         0.0704
     42 H22         6.1821   -4.5415   -7.0545 H         1 <0>         0.0706
     43 H23         6.0262   -3.1790   -5.9198 H         1 <0>         0.0640
     44 H24         6.4009   -6.1073   -5.1442 H         1 <0>         0.0658
     45 H25         7.6586   -4.8490   -5.0862 H         1 <0>         0.0698
     46 H26         6.6417   -5.1946   -2.8512 H         1 <0>         0.0711
     47 H27         6.2946   -3.5604   -3.4652 H         1 <0>         0.0664
     48 H28         4.2609   -4.5984   -2.4982 H         1 <0>         0.0316
     49 H29         4.4168   -5.9609   -3.6329 H         1 <0>         0.0875
     50 H30         1.8868   -3.7254   -1.2236 H         1 <0>         0.4279
     51 H31         2.5971   -4.9796   -2.0219 H         1 <0>         0.4327
     52 H32         3.3506   -3.5161   -1.9505 H         1 <0>         0.4338
@<TRIPOS>BOND
     1    1    2 1
     2    1   22 1
     3    1   23 1
     4    1   24 1
     5    2    3 2
     6    2    4 2
     7    2    5 1
     8    5    6 1
     9    5   25 1
    10    5   26 1
    11    6    7 1
    12    6   27 1
    13    6   28 1
    14    7    8 1
    15    7   29 1
    16    7   30 1
    17    8   13 1
    18    8    9 1
    19    8   21 1
    20    9   10 1
    21    9   31 1
    22    9   32 1
    23   10   11 1
    24   10   33 1
    25   10   34 1
    26   11   12 1
    27   11   35 1
    28   11   36 1
    29   12   13 1
    30   12   37 1
    31   12   38 1
    32   13   14 1
    33   13   15 1
    34   15   20 1
    35   15   16 1
    36   15   39 1
    37   16   17 1
    38   16   40 1
    39   16   41 1
    40   17   18 1
    41   17   42 1
    42   17   43 1
    43   18   19 1
    44   18   44 1
    45   18   45 1
    46   19   20 1
    47   19   46 1
    48   19   47 1
    49   20   48 1
    50   20   49 1
    51   21   50 1
    52   21   51 1
    53   21   52 1
@<TRIPOS>MOLECULE
ZINC36813096
   35    37     0     0     0
SMALL
USER_CHARGES

@<TRIPOS>ATOM
      1 C1         -0.0187    1.5258    0.0104 C.3       1 <0>        -0.1863
      2 C2          0.0021   -0.0041    0.0020 C.3       1 <0>         0.1273
      3 N1          0.6878   -0.4765   -1.2033 N.pl3     1 <0>        -0.6479
      4 C3          2.0627   -0.6899   -1.1831 C.ar      1 <0>         0.2612
      5 C4          2.9660    0.3457   -1.5119 C.ar      1 <0>        -0.0488
      6 C5          2.5109    1.6236   -1.8692 C.ar      1 <0>        -0.0435
      7 C6          3.4123    2.5974   -2.1796 C.ar      1 <0>        -0.0778
      8 C7          4.7818    2.3391   -2.1465 C.ar      1 <0>        -0.0294
      9 C8          5.2563    1.1105   -1.8041 C.ar      1 <0>        -0.1250
     10 C9          4.3567    0.0805   -1.4773 C.ar      1 <0>         0.1223
     11 N2          4.7984   -1.1350   -1.1367 N.ar      1 <0>        -0.4275
     12 C10         3.9732   -2.1084   -0.8283 C.ar      1 <0>         0.1339
     13 C11         2.5914   -1.9274   -0.8332 C.ar      1 <0>         0.1645
     14 N3          1.7396   -2.9880   -0.4919 N.pl3     1 <0>        -0.8351
     15 Br1         2.7980    4.3196   -2.6618 Br        1 <0>         0.0032
     16 C12        -0.0740   -0.7243   -2.4299 C.3       1 <0>         0.0907
     17 C13        -1.5387   -0.2826   -2.4532 C.3       1 <0>        -0.1785
     18 C14        -1.1894   -1.7698   -2.3697 C.3       1 <0>        -0.1974
     19 H1          1.0039    1.9031    0.0027 H         1 <0>         0.0567
     20 H2         -0.5459    1.8868   -0.8726 H         1 <0>         0.0680
     21 H3         -0.5289    1.8773    0.9072 H         1 <0>         0.0753
     22 H4          0.5293   -0.3651    0.8851 H         1 <0>         0.0723
     23 H5         -1.0205   -0.3814    0.0098 H         1 <0>         0.0886
     24 H6          1.4520    1.8345   -1.8985 H         1 <0>         0.1691
     25 H7          5.4773    3.1266   -2.3969 H         1 <0>         0.1625
     26 H8          6.3204    0.9272   -1.7834 H         1 <0>         0.1643
     27 H9          4.3760   -3.0738   -0.5597 H         1 <0>         0.2098
     28 H10         0.7781   -2.8595   -0.4995 H         1 <0>         0.4214
     29 H11         2.1118   -3.8499   -0.2483 H         1 <0>         0.4154
     30 H12         0.4911   -0.6441   -3.3585 H         1 <0>         0.1228
     31 H13        -1.9355    0.1924   -1.5560 H         1 <0>         0.1057
     32 H14        -1.9374    0.0885   -3.3973 H         1 <0>         0.1086
     33 H15        -1.3584   -2.3772   -3.2589 H         1 <0>         0.1050
     34 H16        -1.3564   -2.2733   -1.4175 H         1 <0>         0.0968
     35 H17         5.7538   -1.3019   -1.1173 H         1 <0>         0.4518
@<TRIPOS>BOND
     1    1    2 1
     2    1   19 1
     3    1   20 1
     4    1   21 1
     5    2    3 1
     6    2   22 1
     7    2   23 1
     8    3    4 1
     9    3   16 1
    10    4   13 ar
    11    4    5 ar
    12    5   10 ar
    13    5    6 ar
    14    6    7 ar
    15    6   24 1
    16    7    8 ar
    17    7   15 1
    18    8    9 ar
    19    8   25 1
    20    9   10 ar
    21    9   26 1
    22   10   11 ar
    23   11   12 ar
    24   11   35 1
    25   12   13 ar
    26   12   27 1
    27   13   14 1
    28   14   28 1
    29   14   29 1
    30   16   18 1
    31   16   17 1
    32   16   30 1
    33   17   18 1
    34   17   31 1
    35   17   32 1
    36   18   33 1
    37   18   34 1
@<TRIPOS>MOLECULE
ZINC41143462
   37    39     0     0     0
SMALL
USER_CHARGES

@<TRIPOS>ATOM
      1 C1         -0.0167    1.3780    0.0096 C.ar      1 <0>        -0.1244
      2 C2          1.1706    2.0866    0.0021 C.ar      1 <0>        -0.0747
      3 C3          2.3773    1.4137   -0.0131 C.ar      1 <0>        -0.1470
      4 C4          2.3974    0.0291   -0.0207 C.ar      1 <0>         0.1141
      5 C5          1.2080   -0.6793   -0.0132 C.ar      1 <0>        -0.1535
      6 C6          0.0021   -0.0041    0.0020 C.ar      1 <0>        -0.0715
      7 C7          1.2281   -2.1862   -0.0220 C.3       1 <0>         0.1644
      8 H1          2.0559   -2.5550   -0.6276 H         1 <0>         0.1103
      9 C8          1.3176   -2.7376    1.4154 C.3       1 <0>        -0.1116
     10 C9          0.0442   -3.5373    1.5750 C.2       1 <0>         0.0039
     11 N1         -0.6360   -3.4796    0.5043 N.2       1 <0>        -0.2226
     12 N2         -0.0532   -2.7200   -0.5131 N.pl3     1 <0>        -0.4470
     13 C10        -0.5933   -2.5010   -1.7823 C.ar      1 <0>         0.2120
     14 C11         0.0945   -1.7248   -2.7072 C.ar      1 <0>        -0.1466
     15 C12        -0.4419   -1.5105   -3.9614 C.ar      1 <0>        -0.0658
     16 C13        -1.6632   -2.0679   -4.2978 C.ar      1 <0>        -0.0621
     17 C14        -2.3506   -2.8415   -3.3788 C.ar      1 <0>        -0.0729
     18 C15        -1.8168   -3.0637   -2.1247 C.ar      1 <0>        -0.1446
     19 Cl1        -2.3346   -1.7958   -5.8754 Cl        1 <0>        -0.0566
     20 C16        -0.3568   -4.2901    2.8174 C.3       1 <0>         0.0959
     21 N3         -1.6538   -4.9436    2.5967 N.4       1 <0>        -0.6354
     22 F1          3.5766   -0.6299   -0.0360 F         1 <0>        -0.1327
     23 H2         -0.9594    1.9048    0.0260 H         1 <0>         0.1342
     24 H3          1.1547    3.1665    0.0077 H         1 <0>         0.1405
     25 H4          3.3046    1.9675   -0.0193 H         1 <0>         0.1441
     26 H5         -0.9259   -0.5565    0.0083 H         1 <0>         0.1260
     27 H6          2.1902   -3.3815    1.5248 H         1 <0>         0.1160
     28 H7          1.3500   -1.9215    2.1372 H         1 <0>         0.1128
     29 H8          1.0474   -1.2893   -2.4452 H         1 <0>         0.1327
     30 H9          0.0920   -0.9070   -4.6806 H         1 <0>         0.1429
     31 H10        -3.3036   -3.2749   -3.6440 H         1 <0>         0.1411
     32 H11        -2.3517   -3.6708   -1.4094 H         1 <0>         0.1347
     33 H12         0.3963   -5.0447    3.0439 H         1 <0>         0.1588
     34 H13        -0.4377   -3.5951    3.6531 H         1 <0>         0.1581
     35 H14        -1.5790   -5.5869    1.8230 H         1 <0>         0.4414
     36 H15        -1.9224   -5.4476    3.4285 H         1 <0>         0.4443
     37 H16        -2.3510   -4.2450    2.3869 H         1 <0>         0.4409
@<TRIPOS>BOND
     1    1    6 ar
     2    1    2 ar
     3    1   23 1
     4    2    3 ar
     5    2   24 1
     6    3    4 ar
     7    3   25 1
     8    4    5 ar
     9    4   22 1
    10    5    6 ar
    11    5    7 1
    12    6   26 1
    13    7    8 1
    14    7   12 1
    15    7    9 1
    16    9   10 1
    17    9   27 1
    18    9   28 1
    19   10   11 2
    20   10   20 1
    21   11   12 1
    22   12   13 1
    23   13   18 ar
    24   13   14 ar
    25   14   15 ar
    26   14   29 1
    27   15   16 ar
    28   15   30 1
    29   16   17 ar
    30   16   19 1
    31   17   18 ar
    32   17   31 1
    33   18   32 1
    34   20   21 1
    35   20   33 1
    36   20   34 1
    37   21   35 1
    38   21   36 1
    39   21   37 1
@<TRIPOS>MOLECULE
ZINC49979380
   41    43     0     0     0
SMALL
USER_CHARGES

@<TRIPOS>ATOM
      1 C1         -0.0184    1.5028    0.0103 C.3       1 <0>        -0.1205
      2 C2          0.0021   -0.0041    0.0020 C.ar      1 <0>        -0.0347
      3 C3          0.0058   -0.6881   -1.1999 C.ar      1 <0>        -0.1582
      4 C4          0.0245   -2.0709   -1.2122 C.ar      1 <0>        -0.0309
      5 C5          0.0396   -2.7735   -0.0235 C.ar      1 <0>        -0.1866
      6 C6          0.0364   -2.0895    1.1859 C.ar      1 <0>         0.1908
      7 C7          0.0228   -0.7001    1.1945 C.ar      1 <0>        -0.1936
      8 N1          0.0516   -2.7967    2.3900 N.pl3     1 <0>        -0.5986
      9 C8          0.0710   -4.2615    2.3790 C.3       1 <0>         0.0870
     10 C9          0.0484   -2.1064    3.6067 C.ar      1 <0>         0.0688
     11 C10        -1.1449   -1.7863    4.2163 C.ar      1 <0>         0.0225
     12 C11        -1.1683   -1.1007    5.4264 C.ar      1 <0>        -0.1944
     13 C12         0.0046   -0.7246    6.0456 C.ar      1 <0>         0.2852
     14 C13         1.2414   -1.0383    5.4458 C.ar      1 <0>        -0.1375
     15 C14         1.2671   -1.7411    4.2162 C.ar      1 <0>         0.1726
     16 N2          2.4381   -2.0443    3.6478 N.ar      1 <0>        -0.4602
     17 C15         3.5750   -1.7087    4.2080 C.ar      1 <0>         0.2169
     18 C16         3.6200   -1.0221    5.4188 C.ar      1 <0>        -0.1884
     19 C17         2.4581   -0.6714    6.0471 C.ar      1 <0>         0.0582
     20 N3         -0.0321   -0.0365    7.2599 N.pl3     1 <0>        -0.8394
     21 C18         0.0280   -2.8119   -2.5245 C.3       1 <0>        -0.1224
     22 H1          1.0042    1.8801    0.0026 H         1 <0>         0.0730
     23 H2         -0.5455    1.8639   -0.8728 H         1 <0>         0.0738
     24 H3         -0.5286    1.8543    0.9071 H         1 <0>         0.0660
     25 H4         -0.0063   -0.1412   -2.1311 H         1 <0>         0.1253
     26 H5          0.0535   -3.8534   -0.0339 H         1 <0>         0.1277
     27 H6          0.0244   -0.1651    2.1328 H         1 <0>         0.1146
     28 H7          1.1034   -4.6112    2.3712 H         1 <0>         0.0501
     29 H8         -0.4336   -4.6383    3.2686 H         1 <0>         0.0755
     30 H9         -0.4424   -4.6250    1.4888 H         1 <0>         0.0859
     31 H10        -2.0754   -2.0713    3.7479 H         1 <0>         0.1557
     32 H11        -2.1156   -0.8601    5.8858 H         1 <0>         0.1546
     33 H12         4.5007   -1.9719    3.7179 H         1 <0>         0.2099
     34 H13         4.5718   -0.7594    5.8564 H         1 <0>         0.1861
     35 H14         2.4743   -0.1386    6.9863 H         1 <0>         0.1689
     36 H15        -0.8844    0.1783    7.6701 H         1 <0>         0.4220
     37 H16         0.7948    0.2269    7.6933 H         1 <0>         0.4085
     38 H17         1.0564   -2.9766   -2.8461 H         1 <0>         0.0760
     39 H18        -0.4722   -3.7724   -2.4007 H         1 <0>         0.0697
     40 H19        -0.4977   -2.2226   -3.2759 H         1 <0>         0.0727
     41 H20         2.4470   -2.5225    2.8039 H         1 <0>         0.4475
@<TRIPOS>BOND
     1    1    2 1
     2    1   22 1
     3    1   23 1
     4    1   24 1
     5    2    7 ar
     6    2    3 ar
     7    3    4 ar
     8    3   25 1
     9    4    5 ar
    10    4   21 1
    11    5    6 ar
    12    5   26 1
    13    6    7 ar
    14    6    8 1
    15    7   27 1
    16    8    9 1
    17    8   10 1
    18    9   28 1
    19    9   29 1
    20    9   30 1
    21   10   15 ar
    22   10   11 ar
    23   11   12 ar
    24   11   31 1
    25   12   13 ar
    26   12   32 1
    27   13   14 ar
    28   13   20 1
    29   14   19 ar
    30   14   15 ar
    31   15   16 ar
    32   16   17 ar
    33   16   41 1
    34   17   18 ar
    35   17   33 1
    36   18   19 ar
    37   18   34 1
    38   19   35 1
    39   20   36 1
    40   20   37 1
    41   21   38 1
    42   21   39 1
    43   21   40 1
@<TRIPOS>MOLECULE
ZINC37718922
   36    38     0     0     0
SMALL
USER_CHARGES

@<TRIPOS>ATOM
      1 C1         -0.0184    1.5028    0.0103 C.3       1 <0>        -0.1247
      2 C2          0.0021   -0.0041    0.0020 C.ar      1 <0>        -0.0600
      3 C3          0.0057   -0.6888   -1.1991 C.ar      1 <0>        -0.1144
      4 C4          0.0245   -2.0707   -1.2067 C.ar      1 <0>        -0.0760
      5 C5          0.0400   -2.7685   -0.0132 C.ar      1 <0>        -0.1189
      6 C6          0.0373   -2.0840    1.1875 C.ar      1 <0>        -0.0823
      7 C7          0.0229   -0.7015    1.1951 C.ar      1 <0>        -0.1671
      8 C8          0.0252    0.0449    2.5043 C.3       1 <0>         0.0291
      9 N1         -1.3417    0.4779    2.8235 N.4       1 <0>        -0.4926
     10 C9         -1.3395    1.2055    4.0997 C.3       1 <0>         0.0433
     11 H1         -0.8809    0.6008    4.8821 H         1 <0>         0.1899
     12 C10        -2.7465    1.5965    4.4889 C.ar      1 <0>        -0.1913
     13 C11        -2.7653    2.9845    4.5442 C.ar      1 <0>         0.1766
     14 C12        -3.9525    3.6300    4.8840 C.ar      1 <0>        -0.1085
     15 C13        -5.0870    2.8944    5.1596 C.ar      1 <0>        -0.0395
     16 C14        -5.0564    1.5136    5.1014 C.ar      1 <0>        -0.0950
     17 C15        -3.8800    0.8643    4.7644 C.ar      1 <0>        -0.0301
     18 Br1        -3.8304   -1.0243    4.6833 Br        1 <0>        -0.0167
     19 N2         -1.5068    3.4969    4.2274 N.am      1 <0>        -0.6405
     20 C16        -0.6136    2.5262    3.9560 C.2       1 <0>         0.5256
     21 O1          0.5509    2.6791    3.6532 O.2       1 <0>        -0.4407
     22 H2          1.0042    1.8801    0.0026 H         1 <0>         0.0931
     23 H3         -0.5455    1.8639   -0.8728 H         1 <0>         0.0877
     24 H4         -0.5286    1.8543    0.9071 H         1 <0>         0.0398
     25 H5         -0.0064   -0.1437   -2.1314 H         1 <0>         0.1372
     26 H6          0.0266   -2.6056   -2.1449 H         1 <0>         0.1377
     27 H7          0.0540   -3.8484   -0.0191 H         1 <0>         0.1378
     28 H8          0.0491   -2.6290    2.1199 H         1 <0>         0.1342
     29 H9          0.3931   -0.6092    3.2948 H         1 <0>         0.1458
     30 H10         0.6733    0.9176    2.4238 H         1 <0>         0.1536
     31 H11        -1.6823    1.0834    2.0918 H         1 <0>         0.4265
     32 H12        -3.9847    4.7084    4.9320 H         1 <0>         0.1531
     33 H13        -6.0041    3.4005    5.4228 H         1 <0>         0.1604
     34 H14        -5.9471    0.9426    5.3181 H         1 <0>         0.1582
     35 H15        -1.2984    4.4440    4.2063 H         1 <0>         0.4390
     36 H16        -1.9417   -0.3300    2.8981 H         1 <0>         0.4296
@<TRIPOS>BOND
     1    1    2 1
     2    1   22 1
     3    1   23 1
     4    1   24 1
     5    2    7 ar
     6    2    3 ar
     7    3    4 ar
     8    3   25 1
     9    4    5 ar
    10    4   26 1
    11    5    6 ar
    12    5   27 1
    13    6    7 ar
    14    6   28 1
    15    7    8 1
    16    8    9 1
    17    8   29 1
    18    8   30 1
    19    9   10 1
    20    9   31 1
    21    9   36 1
    22   10   11 1
    23   10   20 1
    24   10   12 1
    25   12   17 ar
    26   12   13 ar
    27   13   14 ar
    28   13   19 1
    29   14   15 ar
    30   14   32 1
    31   15   16 ar
    32   15   33 1
    33   16   17 ar
    34   16   34 1
    35   17   18 1
    36   19   20 am
    37   19   35 1
    38   20   21 2
@<TRIPOS>MOLECULE
ZINC63072356
   40    42     0     0     0
SMALL
USER_CHARGES

@<TRIPOS>ATOM
      1 C1          0.0467    1.6650    0.0078 C.3       1 <0>        -0.1582
      2 C2          0.0409    0.1374   -0.0783 C.3       1 <0>         0.1962
      3 C3         -1.4035   -0.3901    0.0520 C.3       1 <0>        -0.1159
      4 C4         -1.2290   -1.6736    0.9061 C.3       1 <0>        -0.1286
      5 C5         -0.0827   -1.2579    1.8615 C.3       1 <0>         0.1252
      6 N1          0.8147   -0.4291    1.0361 N.pl3     1 <0>        -0.6581
      7 C6          2.1567   -0.2203    1.2701 C.ar      1 <0>         0.4403
      8 C7          3.1416   -1.0238    0.6473 C.ar      1 <0>        -0.1046
      9 C8          2.7867   -2.0592   -0.2286 C.ar      1 <0>        -0.0436
     10 C9          3.7614   -2.8132   -0.8112 C.ar      1 <0>        -0.1032
     11 C10         5.1057   -2.5672   -0.5466 C.ar      1 <0>        -0.0217
     12 C11         5.4834   -1.5690    0.3000 C.ar      1 <0>        -0.1447
     13 C12         4.5072   -0.7710    0.9184 C.ar      1 <0>         0.1467
     14 N2          4.8582    0.2171    1.7535 N.ar      1 <0>        -0.4616
     15 C13         3.9699    0.9757    2.3426 C.ar      1 <0>         0.2320
     16 C14         2.5929    0.7996    2.1290 C.ar      1 <0>        -0.1853
     17 C15         1.6187    1.6724    2.8015 C.2       1 <0>         0.3224
     18 S1         -0.0549    1.3277    2.6966 S.2       1 <0>        -0.4016
     19 N3          2.0436    2.7436    3.5004 N.pl3     1 <0>        -0.7722
     20 C16         0.6437   -0.3108   -1.4112 C.3       1 <0>        -0.1697
     21 H1          1.0507    2.0113    0.2528 H         1 <0>         0.0385
     22 H2         -0.2583    2.0840   -0.9511 H         1 <0>         0.0628
     23 H3         -0.6483    1.9879    0.7829 H         1 <0>         0.0940
     24 H4         -2.0335    0.3341    0.5685 H         1 <0>         0.0851
     25 H5         -1.8156   -0.6319   -0.9277 H         1 <0>         0.0854
     26 H6         -2.1388   -1.8994    1.4625 H         1 <0>         0.0900
     27 H7         -0.9328   -2.5190    0.2850 H         1 <0>         0.0741
     28 H8         -0.4759   -0.6765    2.6955 H         1 <0>         0.1003
     29 H9          0.4445   -2.1390    2.2274 H         1 <0>         0.0623
     30 H10         1.7466   -2.2586   -0.4403 H         1 <0>         0.1649
     31 H11         3.4874   -3.6110   -1.4857 H         1 <0>         0.1562
     32 H12         5.8609   -3.1774   -1.0196 H         1 <0>         0.1590
     33 H13         6.5307   -1.3918    0.4950 H         1 <0>         0.1594
     34 H14         4.3038    1.7590    3.0070 H         1 <0>         0.2034
     35 H15         2.9918    2.9389    3.5599 H         1 <0>         0.3938
     36 H16         1.4011    3.3193    3.9440 H         1 <0>         0.4323
     37 H17         1.6737    0.0392   -1.4800 H         1 <0>         0.0495
     38 H18         0.6250   -1.3990   -1.4708 H         1 <0>         0.0667
     39 H19         0.0620    0.1082   -2.2322 H         1 <0>         0.0778
     40 H20         5.7997    0.3743    1.9265 H         1 <0>         0.4505
@<TRIPOS>BOND
     1    1    2 1
     2    1   21 1
     3    1   22 1
     4    1   23 1
     5    2    6 1
     6    2    3 1
     7    2   20 1
     8    3    4 1
     9    3   24 1
    10    3   25 1
    11    4    5 1
    12    4   26 1
    13    4   27 1
    14    5    6 1
    15    5   28 1
    16    5   29 1
    17    6    7 1
    18    7   16 ar
    19    7    8 ar
    20    8   13 ar
    21    8    9 ar
    22    9   10 ar
    23    9   30 1
    24   10   11 ar
    25   10   31 1
    26   11   12 ar
    27   11   32 1
    28   12   13 ar
    29   12   33 1
    30   13   14 ar
    31   14   15 ar
    32   14   40 1
    33   15   16 ar
    34   15   34 1
    35   16   17 1
    36   17   18 2
    37   17   19 1
    38   19   35 1
    39   19   36 1
    40   20   37 1
    41   20   38 1
    42   20   39 1
@<TRIPOS>MOLECULE
ZINC37107956
   53    54     0     0     0
SMALL
USER_CHARGES

@<TRIPOS>ATOM
      1 C1         -0.0187    1.5258    0.0104 C.3       1 <0>        -0.1584
      2 C2          0.0021   -0.0041    0.0020 C.3       1 <0>         0.0509
      3 O1         -1.3386   -0.4987    0.0122 O.3       1 <0>        -0.3038
      4 C3         -1.4983   -1.8483    0.0064 C.ar      1 <0>         0.1741
      5 C4         -0.3876   -2.6794   -0.0028 C.ar      1 <0>        -0.2011
      6 C5         -0.5526   -4.0509   -0.0082 C.ar      1 <0>        -0.0397
      7 C6         -1.8235   -4.5955   -0.0047 C.ar      1 <0>        -0.2041
      8 C7         -2.9322   -3.7693    0.0041 C.ar      1 <0>        -0.0792
      9 C8         -2.7724   -2.3972    0.0157 C.ar      1 <0>        -0.1406
     10 C9         -2.0007   -6.0920   -0.0110 C.3       1 <0>         0.0865
     11 H1         -1.0861   -6.5647   -0.3691 H         1 <0>         0.1434
     12 C10        -2.3026   -6.5758    1.4087 C.3       1 <0>        -0.1804
     13 N1         -3.1161   -6.4493   -0.8977 N.4       1 <0>        -0.5055
     14 C11        -3.2129   -7.9117   -0.9978 C.3       1 <0>         0.0123
     15 H2         -3.2977   -8.3406    0.0006 H         1 <0>         0.1612
     16 C12        -1.9608   -8.4618   -1.6869 C.3       1 <0>        -0.1703
     17 C13        -2.1037   -9.9756   -1.8594 C.3       1 <0>         0.0356
     18 H3         -2.2164  -10.4432   -0.8813 H         1 <0>         0.1492
     19 N2         -3.2846  -10.2689   -2.6803 N.4       1 <0>        -0.3891
     20 C14        -4.4965   -9.8080   -1.9922 C.3       1 <0>         0.0006
     21 C15        -4.4468   -8.2879   -1.8232 C.3       1 <0>        -0.1319
     22 H4         -5.3460   -7.9480   -1.3092 H         1 <0>         0.1448
     23 C16        -4.3625   -7.6249   -3.1995 C.3       1 <0>        -0.1954
     24 C17        -3.3734  -11.7174   -2.9079 C.3       1 <0>        -0.0564
     25 C18        -0.8549  -10.5298   -2.5481 C.3       1 <0>        -0.1901
     26 H5          1.0039    1.9031    0.0027 H         1 <0>         0.0885
     27 H6         -0.5459    1.8868   -0.8726 H         1 <0>         0.0711
     28 H7         -0.5289    1.8773    0.9072 H         1 <0>         0.0720
     29 H8          0.5123   -0.3556   -0.8948 H         1 <0>         0.0694
     30 H9          0.5293   -0.3651    0.8851 H         1 <0>         0.0704
     31 H10         0.6053   -2.2545   -0.0062 H         1 <0>         0.1444
     32 H11         0.3118   -4.6984   -0.0154 H         1 <0>         0.1358
     33 H12        -3.9238   -4.1971    0.0064 H         1 <0>         0.1232
     34 H13        -3.6386   -1.7523    0.0270 H         1 <0>         0.1461
     35 H14        -3.2172   -6.1032    1.7668 H         1 <0>         0.0875
     36 H15        -2.4308   -7.6583    1.4041 H         1 <0>         0.0781
     37 H16        -1.4750   -6.3107    2.0666 H         1 <0>         0.1138
     38 H17        -3.9765   -6.0803   -0.5213 H         1 <0>         0.4329
     39 H18        -1.8478   -7.9932   -2.6645 H         1 <0>         0.1148
     40 H19        -1.0845   -8.2462   -1.0757 H         1 <0>         0.1368
     41 H20        -5.3731  -10.0793   -2.5804 H         1 <0>         0.1534
     42 H21        -4.5582  -10.2792   -1.0113 H         1 <0>         0.1436
     43 H22        -3.4641   -7.9670   -3.7131 H         1 <0>         0.0690
     44 H23        -5.2410   -7.8930   -3.7864 H         1 <0>         0.1065
     45 H24        -4.3224   -6.5422   -3.0794 H         1 <0>         0.0824
     46 H25        -3.4591  -12.2311   -1.9504 H         1 <0>         0.1292
     47 H26        -4.2501  -11.9363   -3.5175 H         1 <0>         0.1329
     48 H27        -2.4768  -12.0596   -3.4248 H         1 <0>         0.1343
     49 H28         0.0223  -10.3146   -1.9379 H         1 <0>         0.1125
     50 H29        -0.9562  -11.6081   -2.6712 H         1 <0>         0.0971
     51 H30        -0.7412  -10.0617   -3.5258 H         1 <0>         0.0867
     52 H31        -2.9553   -6.0593   -1.8143 H         1 <0>         0.4303
     53 H32        -3.2022   -9.7955   -3.5675 H         1 <0>         0.4248
@<TRIPOS>BOND
     1    1    2 1
     2    1   26 1
     3    1   27 1
     4    1   28 1
     5    2    3 1
     6    2   29 1
     7    2   30 1
     8    3    4 1
     9    4    9 ar
    10    4    5 ar
    11    5    6 ar
    12    5   31 1
    13    6    7 ar
    14    6   32 1
    15    7    8 ar
    16    7   10 1
    17    8    9 ar
    18    8   33 1
    19    9   34 1
    20   10   11 1
    21   10   12 1
    22   10   13 1
    23   12   35 1
    24   12   36 1
    25   12   37 1
    26   13   14 1
    27   13   38 1
    28   13   52 1
    29   14   15 1
    30   14   21 1
    31   14   16 1
    32   16   17 1
    33   16   39 1
    34   16   40 1
    35   17   18 1
    36   17   19 1
    37   17   25 1
    38   19   20 1
    39   19   24 1
    40   19   53 1
    41   20   21 1
    42   20   41 1
    43   20   42 1
    44   21   22 1
    45   21   23 1
    46   23   43 1
    47   23   44 1
    48   23   45 1
    49   24   46 1
    50   24   47 1
    51   24   48 1
    52   25   49 1
    53   25   50 1
    54   25   51 1
@<TRIPOS>MOLECULE
ZINC43967777
   58    60     0     0     0
SMALL
USER_CHARGES

@<TRIPOS>ATOM
      1 C1          0.2837    1.7550   -0.3464 C.3       1 <0>        -0.1579
      2 C2          0.2310    0.2289   -0.2508 C.3       1 <0>        -0.1499
      3 C3          0.9027   -0.3828   -1.4819 C.3       1 <0>        -0.0164
      4 N1          0.8521   -1.8480   -1.3900 N.4       1 <0>        -0.5074
      5 C4          1.4970   -2.4353   -2.5721 C.3       1 <0>         0.0311
      6 H1          2.5206   -1.9906   -2.6087 H         1 <0>         0.1349
      7 C5          0.7849   -1.9695   -3.8362 C.3       1 <0>        -0.1419
      8 C6          0.2745   -3.1289   -4.6950 C.3       1 <0>        -0.1366
      9 C7         -1.2416   -3.2712   -4.4659 C.3       1 <0>        -0.1323
     10 C8         -1.5019   -3.8776   -3.0877 C.3       1 <0>        -0.1206
     11 C9         -0.5493   -5.0461   -2.8397 C.3       1 <0>        -0.1319
     12 C10         0.4931   -4.6428   -1.7981 C.3       1 <0>        -0.1366
     13 C11         1.6752   -3.9319   -2.4406 C.3       1 <0>         0.0707
     14 H2          1.9025   -4.3851   -3.4084 H         1 <0>         0.1064
     15 N2          2.8544   -4.1783   -1.6000 N.3       1 <0>        -0.5575
     16 C12         4.0453   -3.5219   -2.1577 C.3       1 <0>         0.0088
     17 C13         5.2355   -3.7524   -1.2238 C.3       1 <0>         0.0043
     18 N3          5.4726   -5.1948   -1.0795 N.4       1 <0>        -0.3587
     19 C14         4.2838   -5.8325   -0.4986 C.3       1 <0>        -0.0016
     20 C15         3.0857   -5.6193   -1.4264 C.3       1 <0>         0.0190
     21 C16         6.6264   -5.4151   -0.1973 C.3       1 <0>        -0.0879
     22 C17         7.8993   -5.9836   -0.8278 C.3       1 <0>        -0.1502
     23 C18         7.0371   -6.8626    0.0804 C.3       1 <0>        -0.1519
     24 H3          1.3229    2.0805   -0.3927 H         1 <0>         0.0675
     25 H4         -0.2395    2.0810   -1.2454 H         1 <0>         0.0692
     26 H5         -0.1949    2.1908    0.5306 H         1 <0>         0.0814
     27 H6          0.7542   -0.0970    0.6482 H         1 <0>         0.0863
     28 H7         -0.8083   -0.0966   -0.2045 H         1 <0>         0.0876
     29 H8          0.3795   -0.0568   -2.3808 H         1 <0>         0.1358
     30 H9          1.9419   -0.0573   -1.5281 H         1 <0>         0.1317
     31 H10         1.3364   -2.1497   -0.5578 H         1 <0>         0.4297
     32 H11        -0.0624   -1.3344   -3.5597 H         1 <0>         0.0935
     33 H12         1.4763   -1.3663   -4.4358 H         1 <0>         0.1035
     34 H13         0.4245   -2.8623   -5.7524 H         1 <0>         0.0807
     35 H14         0.7801   -4.0512   -4.5029 H         1 <0>         0.0864
     36 H15        -1.7034   -2.2872   -4.5289 H         1 <0>         0.0732
     37 H16        -1.6546   -3.9224   -5.2361 H         1 <0>         0.0793
     38 H17        -1.3662   -3.1197   -2.3185 H         1 <0>         0.0414
     39 H18        -2.5327   -4.2406   -3.0452 H         1 <0>         0.0797
     40 H19        -1.1265   -5.8939   -2.4516 H         1 <0>         0.0812
     41 H20        -0.0693   -5.3528   -3.7627 H         1 <0>         0.0834
     42 H21         0.0256   -4.0540   -1.0173 H         1 <0>         0.0716
     43 H22         0.8665   -5.5667   -1.3216 H         1 <0>         0.0947
     44 H23         4.2662   -3.9421   -3.1389 H         1 <0>         0.0755
     45 H24         3.8598   -2.4521   -2.2532 H         1 <0>         0.1226
     46 H25         6.1231   -3.2784   -1.6428 H         1 <0>         0.1419
     47 H26         5.0197   -3.3201   -0.2468 H         1 <0>         0.1385
     48 H27         4.4658   -6.9006   -0.3799 H         1 <0>         0.1405
     49 H28         4.0728   -5.3895    0.4747 H         1 <0>         0.1408
     50 H29         2.2000   -6.0797   -0.9884 H         1 <0>         0.1381
     51 H30         3.2908   -6.0740   -2.3956 H         1 <0>         0.0724
     52 H31         6.7438   -4.6945    0.6120 H         1 <0>         0.1779
     53 H32         7.8806   -6.1941   -1.8971 H         1 <0>         0.1207
     54 H33         8.8545   -5.6369   -0.4333 H         1 <0>         0.1376
     55 H34         7.4250   -7.0941    1.0724 H         1 <0>         0.1375
     56 H35         6.4511   -7.6513   -0.3914 H         1 <0>         0.1198
     57 H36        -0.1099   -2.1493   -1.3472 H         1 <0>         0.4229
     58 H37         5.6609   -5.5968   -1.9855 H         1 <0>         0.4196
@<TRIPOS>BOND
     1    1    2 1
     2    1   24 1
     3    1   25 1
     4    1   26 1
     5    2    3 1
     6    2   27 1
     7    2   28 1
     8    3    4 1
     9    3   29 1
    10    3   30 1
    11    4    5 1
    12    4   31 1
    13    4   57 1
    14    5    6 1
    15    5   13 1
    16    5    7 1
    17    7    8 1
    18    7   32 1
    19    7   33 1
    20    8    9 1
    21    8   34 1
    22    8   35 1
    23    9   10 1
    24    9   36 1
    25    9   37 1
    26   10   11 1
    27   10   38 1
    28   10   39 1
    29   11   12 1
    30   11   40 1
    31   11   41 1
    32   12   13 1
    33   12   42 1
    34   12   43 1
    35   13   14 1
    36   13   15 1
    37   15   20 1
    38   15   16 1
    39   16   17 1
    40   16   44 1
    41   16   45 1
    42   17   18 1
    43   17   46 1
    44   17   47 1
    45   18   19 1
    46   18   21 1
    47   18   58 1
    48   19   20 1
    49   19   48 1
    50   19   49 1
    51   20   50 1
    52   20   51 1
    53   21   23 1
    54   21   22 1
    55   21   52 1
    56   22   23 1
    57   22   53 1
    58   22   54 1
    59   23   55 1
    60   23   56 1
@<TRIPOS>MOLECULE
ZINC52447444
   55    56     0     0     0
SMALL
USER_CHARGES

@<TRIPOS>ATOM
      1 C1          0.8340   -0.2450    1.1640 C.3       1 <0>        -0.1588
      2 C2          0.1041   -0.0244   -0.1625 C.3       1 <0>        -0.1493
      3 C3         -1.2918   -0.6462   -0.0860 C.3       1 <0>         0.0267
      4 H1         -1.8318   -0.2226    0.7608 H         1 <0>         0.1415
      5 C4         -1.1658   -2.1603    0.0960 C.3       1 <0>        -0.1427
      6 C5         -2.5650   -2.7779    0.1722 C.3       1 <0>        -0.1403
      7 C6         -3.3451   -2.4083   -1.0928 C.3       1 <0>        -0.1441
      8 C7         -3.3903   -0.8851   -1.2307 C.3       1 <0>        -0.0121
      9 N1         -2.0234   -0.3585   -1.3256 N.4       1 <0>        -0.3820
     10 C8         -2.0741    1.0944   -1.5366 C.3       1 <0>         0.0745
     11 C9         -2.7260    1.3868   -2.8634 C.2       1 <0>        -0.0753
     12 C10        -4.0412    1.5815   -3.0677 C.2       1 <0>        -0.1285
     13 C11        -4.2096    1.8233   -4.4505 C.2       1 <0>        -0.2624
     14 C12        -2.9872    1.7619   -5.0085 C.2       1 <0>         0.0975
     15 O1         -2.0918    1.5030   -4.0416 O.3       1 <0>        -0.1486
     16 C13        -2.6747    1.9562   -6.4699 C.3       1 <0>        -0.1077
     17 C14        -5.5092    2.0968   -5.1627 C.3       1 <0>         0.0640
     18 N2         -5.9777    0.8673   -5.8160 N.4       1 <0>        -0.5047
     19 C15        -7.2446    1.1340   -6.5103 C.3       1 <0>         0.0546
     20 C16        -7.0292    2.2215   -7.5647 C.3       1 <0>        -0.1818
     21 C17        -7.7326   -0.1466   -7.1907 C.3       1 <0>        -0.1785
     22 C18        -8.2914    1.6047   -5.4985 C.3       1 <0>        -0.1792
     23 H2          1.8472    0.1504    1.0913 H         1 <0>         0.0806
     24 H3          0.2996    0.2695    1.9627 H         1 <0>         0.0690
     25 H4          0.8751   -1.3120    1.3830 H         1 <0>         0.0714
     26 H5          0.0155    1.0448   -0.3550 H         1 <0>         0.0866
     27 H6          0.6671   -0.4935   -0.9693 H         1 <0>         0.0887
     28 H7         -0.6261   -2.5849   -0.7505 H         1 <0>         0.0895
     29 H8         -0.6237   -2.3722    1.0175 H         1 <0>         0.1200
     30 H9         -2.4813   -3.8623    0.2451 H         1 <0>         0.0991
     31 H10        -3.0867   -2.3918    1.0479 H         1 <0>         0.0848
     32 H11        -2.8506   -2.8382   -1.9639 H         1 <0>         0.0864
     33 H12        -4.3606   -2.7976   -1.0209 H         1 <0>         0.1134
     34 H13        -3.9451   -0.6185   -2.1303 H         1 <0>         0.1213
     35 H14        -3.8852   -0.4563   -0.3593 H         1 <0>         0.1326
     36 H15        -2.6528    1.5576   -0.7375 H         1 <0>         0.1620
     37 H16        -1.0614    1.4976   -1.5326 H         1 <0>         0.1556
     38 H17        -4.8194    1.5572   -2.3192 H         1 <0>         0.1725
     39 H18        -2.4755    3.0106   -6.6618 H         1 <0>         0.1148
     40 H19        -1.7973    1.3665   -6.7354 H         1 <0>         0.1045
     41 H20        -3.5253    1.6322   -7.0696 H         1 <0>         0.0912
     42 H21        -6.2549    2.4321   -4.4420 H         1 <0>         0.1484
     43 H22        -5.3558    2.8716   -5.9139 H         1 <0>         0.1461
     44 H23        -5.2874    0.5569   -6.4832 H         1 <0>         0.4221
     45 H24        -6.2835    1.8862   -8.2855 H         1 <0>         0.0835
     46 H25        -7.9692    2.4193   -8.0798 H         1 <0>         0.1115
     47 H26        -6.6816    3.1338   -7.0799 H         1 <0>         0.0827
     48 H27        -7.8860   -0.9214   -6.4395 H         1 <0>         0.0821
     49 H28        -8.6726    0.0513   -7.7058 H         1 <0>         0.1115
     50 H29        -6.9869   -0.4819   -7.9115 H         1 <0>         0.0830
     51 H30        -7.9437    2.5169   -5.0138 H         1 <0>         0.0820
     52 H31        -9.2314    1.8025   -6.0137 H         1 <0>         0.1107
     53 H32        -8.4448    0.8299   -4.7474 H         1 <0>         0.0822
     54 H33        -1.5495   -0.7930   -2.1032 H         1 <0>         0.4226
     55 H34        -6.1198    0.1501   -5.1207 H         1 <0>         0.4248
@<TRIPOS>BOND
     1    1    2 1
     2    1   23 1
     3    1   24 1
     4    1   25 1
     5    2    3 1
     6    2   26 1
     7    2   27 1
     8    3    4 1
     9    3    9 1
    10    3    5 1
    11    5    6 1
    12    5   28 1
    13    5   29 1
    14    6    7 1
    15    6   30 1
    16    6   31 1
    17    7    8 1
    18    7   32 1
    19    7   33 1
    20    8    9 1
    21    8   34 1
    22    8   35 1
    23    9   10 1
    24    9   54 1
    25   10   11 1
    26   10   36 1
    27   10   37 1
    28   11   15 1
    29   11   12 2
    30   12   13 1
    31   12   38 1
    32   13   14 2
    33   13   17 1
    34   14   15 1
    35   14   16 1
    36   16   39 1
    37   16   40 1
    38   16   41 1
    39   17   18 1
    40   17   42 1
    41   17   43 1
    42   18   19 1
    43   18   44 1
    44   18   55 1
    45   19   20 1
    46   19   21 1
    47   19   22 1
    48   20   45 1
    49   20   46 1
    50   20   47 1
    51   21   48 1
    52   21   49 1
    53   21   50 1
    54   22   51 1
    55   22   52 1
    56   22   53 1
@<TRIPOS>MOLECULE
ZINC55067464
   54    55     0     0     0
SMALL
USER_CHARGES

@<TRIPOS>ATOM
      1 C1         -0.6201   -2.6204   -1.0711 C.3       1 <0>        -0.1737
      2 C2         -1.3901   -2.0560    0.1245 C.3       1 <0>        -0.1501
      3 C3         -1.3349   -0.5274    0.0911 C.3       1 <0>         0.0238
      4 H1         -0.2955   -0.2022    0.0459 H         1 <0>         0.1404
      5 C4         -1.9905    0.0343    1.3543 C.3       1 <0>        -0.1840
      6 N1         -2.0533   -0.0373   -1.0928 N.4       1 <0>        -0.3783
      7 C5         -3.4796   -0.3631   -0.9674 C.3       1 <0>        -0.0349
      8 C6         -4.2104    0.0447   -2.2509 C.3       1 <0>         0.1153
      9 N2         -3.9330    1.4652   -2.5142 N.pl3     1 <0>        -0.6833
     10 C7         -2.5318    1.9128   -2.4960 C.3       1 <0>         0.1166
     11 C8         -1.8802    1.4168   -1.2010 C.3       1 <0>        -0.0275
     12 C9         -4.9705    2.3633   -2.7745 C.ar      1 <0>         0.1790
     13 C10        -5.5748    3.0510   -1.7294 C.ar      1 <0>        -0.1058
     14 C11        -6.5999    3.9385   -1.9903 C.ar      1 <0>        -0.0836
     15 C12        -7.0256    4.1429   -3.2903 C.ar      1 <0>        -0.0894
     16 C13        -6.4268    3.4599   -4.3327 C.ar      1 <0>        -0.1199
     17 C14        -5.3966    2.5753   -4.0793 C.ar      1 <0>        -0.1403
     18 C15        -4.7400    1.8363   -5.2168 C.3       1 <0>         0.0863
     19 H2         -3.6792    1.7074   -5.0020 H         1 <0>         0.1400
     20 C16        -5.3975    0.4645   -5.3808 C.3       1 <0>        -0.1812
     21 N3         -4.8984    2.6067   -6.4575 N.4       1 <0>        -0.5116
     22 C17        -4.1573    1.9476   -7.5411 C.3       1 <0>        -0.0124
     23 C18        -4.3222    2.7500   -8.8334 C.3       1 <0>        -0.1916
     24 H3         -0.5817   -3.7073   -0.9983 H         1 <0>         0.0867
     25 H4         -1.1238   -2.3357   -1.9948 H         1 <0>         0.0477
     26 H5          0.3938   -2.2203   -1.0719 H         1 <0>         0.0728
     27 H6         -2.4286   -2.3833    0.0751 H         1 <0>         0.0873
     28 H7         -0.9394   -2.4157    1.0495 H         1 <0>         0.1154
     29 H8         -1.4575   -0.3294    2.2327 H         1 <0>         0.1085
     30 H9         -1.9512    1.1233    1.3304 H         1 <0>         0.0800
     31 H10        -3.0299   -0.2909    1.3995 H         1 <0>         0.0815
     32 H11        -3.5948   -1.4353   -0.8086 H         1 <0>         0.1417
     33 H12        -3.9028    0.1774   -0.1208 H         1 <0>         0.1372
     34 H13        -3.8516   -0.5592   -3.0844 H         1 <0>         0.0809
     35 H14        -5.2830   -0.1016   -2.1238 H         1 <0>         0.1192
     36 H15        -2.0035    1.4976   -3.3543 H         1 <0>         0.0784
     37 H16        -2.4946    3.0016   -2.5311 H         1 <0>         0.1186
     38 H17        -2.3518    1.9035   -0.3473 H         1 <0>         0.1352
     39 H18        -0.8169    1.6562   -1.2143 H         1 <0>         0.1401
     40 H19        -5.2433    2.8912   -0.7140 H         1 <0>         0.1340
     41 H20        -7.0701    4.4733   -1.1784 H         1 <0>         0.1422
     42 H21        -7.8279    4.8374   -3.4916 H         1 <0>         0.1427
     43 H22        -6.7621    3.6214   -5.3465 H         1 <0>         0.1230
     44 H23        -6.4584    0.5934   -5.5956 H         1 <0>         0.0872
     45 H24        -4.9226   -0.0700   -6.2035 H         1 <0>         0.0876
     46 H25        -5.2800   -0.1071   -4.4602 H         1 <0>         0.1006
     47 H26        -5.8765    2.6558   -6.7004 H         1 <0>         0.4276
     48 H27        -3.1007    1.8945   -7.2788 H         1 <0>         0.1299
     49 H28        -4.5465    0.9399   -7.6870 H         1 <0>         0.1335
     50 H29        -5.3788    2.8030   -9.0957 H         1 <0>         0.0833
     51 H30        -3.9330    3.7576   -8.6875 H         1 <0>         0.0825
     52 H31        -3.7723    2.2609   -9.6374 H         1 <0>         0.1110
     53 H32        -4.5381    3.5395   -6.3225 H         1 <0>         0.4305
     54 H33        -1.6807   -0.4815   -1.9186 H         1 <0>         0.4190
@<TRIPOS>BOND
     1    1    2 1
     2    1   24 1
     3    1   25 1
     4    1   26 1
     5    2    3 1
     6    2   27 1
     7    2   28 1
     8    3    4 1
     9    3    5 1
    10    3    6 1
    11    5   29 1
    12    5   30 1
    13    5   31 1
    14    6   11 1
    15    6    7 1
    16    6   54 1
    17    7    8 1
    18    7   32 1
    19    7   33 1
    20    8    9 1
    21    8   34 1
    22    8   35 1
    23    9   10 1
    24    9   12 1
    25   10   11 1
    26   10   36 1
    27   10   37 1
    28   11   38 1
    29   11   39 1
    30   12   17 ar
    31   12   13 ar
    32   13   14 ar
    33   13   40 1
    34   14   15 ar
    35   14   41 1
    36   15   16 ar
    37   15   42 1
    38   16   17 ar
    39   16   43 1
    40   17   18 1
    41   18   19 1
    42   18   20 1
    43   18   21 1
    44   20   44 1
    45   20   45 1
    46   20   46 1
    47   21   22 1
    48   21   47 1
    49   21   53 1
    50   22   23 1
    51   22   48 1
    52   22   49 1
    53   23   50 1
    54   23   51 1
    55   23   52 1
@<TRIPOS>MOLECULE
ZINC65499168
   39    42     0     0     0
SMALL
USER_CHARGES

@<TRIPOS>ATOM
      1 C1         -0.0184    1.5028    0.0103 C.3       1 <0>        -0.1371
      2 C2          0.0021   -0.0041    0.0020 C.ar      1 <0>         0.0460
      3 C3          0.0057   -0.6769   -1.1829 C.ar      1 <0>        -0.1424
      4 C4          0.0248   -2.0653   -1.2230 C.ar      1 <0>        -0.0066
      5 C5          0.0404   -2.8041   -0.0494 C.ar      1 <0>        -0.1328
      6 C6          0.0370   -2.1270    1.1937 C.ar      1 <0>        -0.0591
      7 C7          0.0232   -0.7117    1.2173 C.ar      1 <0>         0.1134
      8 N1          0.0251   -0.0667    2.3886 N.ar      1 <0>        -0.4404
      9 C8          0.0448   -0.7187    3.5258 C.ar      1 <0>         0.1395
     10 C9          0.0646   -2.1106    3.5713 C.ar      1 <0>        -0.1226
     11 C10         0.0517   -2.8304    2.4088 C.ar      1 <0>        -0.0997
     12 C11         0.0597   -4.2812   -0.0961 C.ar      1 <0>         0.1467
     13 C12         1.0470   -5.0062    0.7011 C.ar      1 <0>         0.0342
     14 C13         1.1130   -6.3492    0.6986 C.ar      1 <0>        -0.1443
     15 C14         0.1740   -7.1280   -0.1222 C.ar      1 <0>         0.3435
     16 N2          0.0254   -8.4095   -0.3025 N.pl3     1 <0>        -0.4704
     17 C15        -1.0859   -8.5980   -1.2426 C.3       1 <0>         0.2629
     18 H1         -0.7354   -9.1120   -2.1377 H         1 <0>         0.2368
     19 N3         -1.5681   -7.2555   -1.5888 N.pl3     1 <0>        -0.5014
     20 C16        -0.8336   -6.3960   -0.9354 C.ar      1 <0>         0.3218
     21 C17        -0.8470   -4.9330   -0.8771 C.ar      1 <0>        -0.1812
     22 C18        -2.2042   -9.4040   -0.5788 C.3       1 <0>         0.0530
     23 O1         -2.6545   -8.7192    0.5918 O.3       1 <0>        -0.5811
     24 H2          1.0042    1.8801    0.0026 H         1 <0>         0.0979
     25 H3         -0.5455    1.8639   -0.8728 H         1 <0>         0.0856
     26 H4         -0.5286    1.8543    0.9071 H         1 <0>         0.0944
     27 H5         -0.0069   -0.1202   -2.1084 H         1 <0>         0.1560
     28 H6          0.0273   -2.5736   -2.1759 H         1 <0>         0.1466
     29 H7          0.0460   -0.1621    4.4513 H         1 <0>         0.1778
     30 H8          0.0806   -2.6206    4.5232 H         1 <0>         0.1542
     31 H9          0.0665   -3.9102    2.4247 H         1 <0>         0.1322
     32 H10         1.7434   -4.4475    1.3089 H         1 <0>         0.2006
     33 H11         1.8551   -6.8552    1.2985 H         1 <0>         0.2077
     34 H12        -1.5691   -4.3733   -1.4531 H         1 <0>         0.2000
     35 H13        -3.0344   -9.5161   -1.2762 H         1 <0>         0.1272
     36 H14        -1.8272  -10.3884   -0.3015 H         1 <0>         0.1253
     37 H15        -3.3650   -9.1740    1.0647 H         1 <0>         0.4327
     38 H16         0.5532   -9.1114    0.1094 H         1 <0>         0.4924
     39 H17        -2.2980   -7.0454   -2.1921 H         1 <0>         0.4909
@<TRIPOS>BOND
     1    1    2 1
     2    1   24 1
     3    1   25 1
     4    1   26 1
     5    2    7 ar
     6    2    3 ar
     7    3    4 ar
     8    3   27 1
     9    4    5 ar
    10    4   28 1
    11    5    6 ar
    12    5   12 1
    13    6   11 ar
    14    6    7 ar
    15    7    8 ar
    16    8    9 ar
    17    9   10 ar
    18    9   29 1
    19   10   11 ar
    20   10   30 1
    21   11   31 1
    22   12   21 ar
    23   12   13 ar
    24   13   14 ar
    25   13   32 1
    26   14   15 ar
    27   14   33 1
    28   15   20 ar
    29   15   16 2
    30   16   17 1
    31   16   38 1
    32   17   18 1
    33   17   19 1
    34   17   22 1
    35   19   20 2
    36   19   39 1
    37   20   21 ar
    38   21   34 1
    39   22   23 1
    40   22   35 1
    41   22   36 1
    42   23   37 1
@<TRIPOS>MOLECULE
ZINC37649908
   39    40     0     0     0
SMALL
USER_CHARGES

@<TRIPOS>ATOM
      1 C1         -0.0187    1.5258    0.0104 C.3       1 <0>        -0.1796
      2 C2          0.0021   -0.0041    0.0020 C.3       1 <0>         0.0818
      3 H1         -1.0205   -0.3814    0.0098 H         1 <0>         0.1513
      4 C3          0.7309   -0.5033    1.2229 C.ar      1 <0>        -0.1772
      5 C4          2.0770   -0.8080    1.1481 C.ar      1 <0>        -0.1040
      6 C5          2.7458   -1.2659    2.2677 C.ar      1 <0>        -0.1098
      7 C6          2.0693   -1.4196    3.4637 C.ar      1 <0>        -0.0634
      8 C7          0.7237   -1.1152    3.5411 C.ar      1 <0>        -0.1362
      9 C8          0.0539   -0.6514    2.4213 C.ar      1 <0>         0.1318
     10 F1         -1.2607   -0.3489    2.4969 F         1 <0>        -0.1256
     11 N1          0.6897   -0.4778   -1.2066 N.4       1 <0>        -0.5077
     12 C9         -0.0856   -0.0931   -2.3936 C.3       1 <0>         0.0401
     13 C10         0.6198   -0.5791   -3.6335 C.ar      1 <0>        -0.1848
     14 C11         1.5520    0.2274   -4.2595 C.ar      1 <0>        -0.0358
     15 C12         2.1989   -0.2183   -5.3966 C.ar      1 <0>        -0.1304
     16 C13         1.9142   -1.4709   -5.9079 C.ar      1 <0>         0.0174
     17 C14         0.9829   -2.2776   -5.2815 C.ar      1 <0>        -0.6731
     18 C15         0.3389   -1.8334   -4.1416 C.ar      1 <0>         0.0062
     19 S1          0.6195   -3.8737   -5.9334 S.o2      1 <0>         2.6977
     20 O1         -0.6833   -4.2116   -5.4777 O.2       1 <0>        -0.9534
     21 O2          0.9580   -3.8357   -7.3130 O.2       1 <0>        -0.9474
     22 N2          1.6629   -4.9433   -5.2194 N.pl3     1 <0>        -1.2477
     23 H2          1.0039    1.9031    0.0027 H         1 <0>         0.0857
     24 H3         -0.5459    1.8868   -0.8726 H         1 <0>         0.0892
     25 H4         -0.5289    1.8773    0.9072 H         1 <0>         0.1091
     26 H5          2.6064   -0.6887    0.2143 H         1 <0>         0.1262
     27 H6          3.7976   -1.5041    2.2082 H         1 <0>         0.1442
     28 H7          2.5927   -1.7782    4.3377 H         1 <0>         0.1482
     29 H8          0.1954   -1.2357    4.4753 H         1 <0>         0.1518
     30 H9          1.6080   -0.0627   -1.2556 H         1 <0>         0.4249
     31 H10        -1.0777   -0.5415   -2.3406 H         1 <0>         0.1464
     32 H11        -0.1790    0.9922   -2.4305 H         1 <0>         0.1470
     33 H12         1.7745    1.2059   -3.8601 H         1 <0>         0.1433
     34 H13         2.9266    0.4120   -5.8860 H         1 <0>         0.1505
     35 H14         2.4191   -1.8189   -6.7968 H         1 <0>         0.1573
     36 H15        -0.3861   -2.4653   -3.6500 H         1 <0>         0.1529
     37 H16         2.3136   -4.6279   -4.5729 H         1 <0>         0.4150
     38 H17         1.6233   -5.8853   -5.4477 H         1 <0>         0.4278
     39 H18         0.7761   -1.4825   -1.1724 H         1 <0>         0.4302
@<TRIPOS>BOND
     1    1    2 1
     2    1   23 1
     3    1   24 1
     4    1   25 1
     5    2    3 1
     6    2    4 1
     7    2   11 1
     8    4    9 ar
     9    4    5 ar
    10    5    6 ar
    11    5   26 1
    12    6    7 ar
    13    6   27 1
    14    7    8 ar
    15    7   28 1
    16    8    9 ar
    17    8   29 1
    18    9   10 1
    19   11   12 1
    20   11   30 1
    21   11   39 1
    22   12   13 1
    23   12   31 1
    24   12   32 1
    25   13   18 ar
    26   13   14 ar
    27   14   15 ar
    28   14   33 1
    29   15   16 ar
    30   15   34 1
    31   16   17 ar
    32   16   35 1
    33   17   18 ar
    34   17   19 1
    35   18   36 1
    36   19   20 2
    37   19   21 2
    38   19   22 1
    39   22   37 1
    40   22   38 1
@<TRIPOS>MOLECULE
ZINC43095749
   34    35     0     0     0
SMALL
USER_CHARGES

@<TRIPOS>ATOM
      1 C1          2.0825    1.8441    1.5160 C.3       1 <0>        -0.1702
      2 C2          2.2164    0.3300    1.3417 C.3       1 <0>        -0.1581
      3 C3          0.8241   -0.3018    1.2837 C.3       1 <0>         0.0336
      4 H1          0.2576   -0.0147    2.1695 H         1 <0>         0.1665
      5 C4          0.9570   -1.8253    1.2349 C.3       1 <0>        -0.0753
      6 H2         -0.0352   -2.2764    1.2262 H         1 <0>         0.1434
      7 C5          1.7015   -2.2249   -0.0130 C.ar      1 <0>        -0.0798
      8 C6          3.0656   -2.4431    0.0359 C.ar      1 <0>        -0.0931
      9 C7          3.7485   -2.8101   -1.1084 C.ar      1 <0>        -0.0751
     10 C8          3.0675   -2.9591   -2.3025 C.ar      1 <0>        -0.0894
     11 C9          1.7038   -2.7411   -2.3523 C.ar      1 <0>        -0.0653
     12 C10         1.0190   -2.3789   -1.2060 C.ar      1 <0>        -0.1189
     13 Br1        -0.8482   -2.0874   -1.2720 Br        1 <0>        -0.0348
     14 S1          1.8697   -2.3996    2.6936 S.3       1 <0>         0.0955
     15 C11         0.7728   -2.0815    4.0353 C.2       1 <0>         0.2297
     16 N1          0.9788   -2.4156    5.3277 N.pl3     1 <0>        -0.4474
     17 H3          1.7518   -2.8730    5.6940 H         1 <0>         0.4514
     18 N2         -0.1489   -1.9693    6.0355 N.2       1 <0>        -0.2837
     19 C12        -0.9480   -1.4096    5.1674 C.2       1 <0>         0.2181
     20 N3         -0.3909   -1.4707    3.9574 N.2       1 <0>        -0.5518
     21 N4          0.1233    0.1673    0.0809 N.4       1 <0>        -0.6380
     22 H4          1.5478    2.0574    2.4416 H         1 <0>         0.0739
     23 H5          3.0744    2.2942    1.5574 H         1 <0>         0.0878
     24 H6          1.5299    2.2594    0.6732 H         1 <0>         0.0526
     25 H7          2.7511    0.1166    0.4161 H         1 <0>         0.0933
     26 H8          2.7690   -0.0853    2.1845 H         1 <0>         0.1237
     27 H9          3.5980   -2.3265    0.9683 H         1 <0>         0.1458
     28 H10         4.8143   -2.9802   -1.0700 H         1 <0>         0.1488
     29 H11         3.6015   -3.2455   -3.1965 H         1 <0>         0.1501
     30 H12         1.1719   -2.8575   -3.2851 H         1 <0>         0.1507
     31 H13        -1.9054   -0.9641    5.3940 H         1 <0>         0.2288
     32 H14         0.6094   -0.1595   -0.7407 H         1 <0>         0.4245
     33 H15        -0.8194   -0.1923    0.0791 H         1 <0>         0.4303
     34 H16         0.0985    1.1760    0.0780 H         1 <0>         0.4323
@<TRIPOS>BOND
     1    1    2 1
     2    1   22 1
     3    1   23 1
     4    1   24 1
     5    2    3 1
     6    2   25 1
     7    2   26 1
     8    3    4 1
     9    3    5 1
    10    3   21 1
    11    5    6 1
    12    5    7 1
    13    5   14 1
    14    7   12 ar
    15    7    8 ar
    16    8    9 ar
    17    8   27 1
    18    9   10 ar
    19    9   28 1
    20   10   11 ar
    21   10   29 1
    22   11   12 ar
    23   11   30 1
    24   12   13 1
    25   14   15 1
    26   15   20 2
    27   15   16 1
    28   16   17 1
    29   16   18 1
    30   18   19 2
    31   19   20 1
    32   19   31 1
    33   21   32 1
    34   21   33 1
    35   21   34 1
@<TRIPOS>MOLECULE
ZINC49563268
   42    44     0     0     0
SMALL
USER_CHARGES

@<TRIPOS>ATOM
      1 C1          0.0733    1.7957   -0.5353 C.ar      1 <0>         0.0150
      2 C2          0.3580    0.8377   -1.4888 C.ar      1 <0>        -0.2012
      3 C3          1.4853    0.0380   -1.3527 C.ar      1 <0>         0.3234
      4 C4          2.3235    0.2043   -0.2574 C.ar      1 <0>        -0.7567
      5 C5          2.0338    1.1637    0.6926 C.ar      1 <0>         0.0481
      6 C6          0.9098    1.9590    0.5544 C.ar      1 <0>        -0.1639
      7 Br1         0.5166    3.2716    1.8576 Br        1 <0>        -0.0317
      8 S1          3.7545   -0.8083   -0.0803 S.o2      1 <0>         2.6914
      9 O1          4.4211   -0.3674    1.0946 O.2       1 <0>        -0.9378
     10 O2          3.3254   -2.1518   -0.2541 O.2       1 <0>        -0.9358
     11 N1          4.7584   -0.4639   -1.3515 N.pl3     1 <0>        -1.1098
     12 C7          5.3328    0.8768   -1.4889 C.3       1 <0>         0.1402
     13 H1          4.7452    1.6088   -0.9347 H         1 <0>         0.1258
     14 C8          6.8172    0.8945   -1.0300 C.3       1 <0>        -0.1636
     15 C9          7.5391    1.8131   -2.0460 C.3       1 <0>        -0.0073
     16 N2          6.4940    2.3346   -2.9285 N.4       1 <0>        -0.3892
     17 C10         5.4512    1.2749   -2.9702 C.3       1 <0>         0.0229
     18 H2          5.7783    0.4291   -3.5749 H         1 <0>         0.1515
     19 C11         4.1850    1.9027   -3.5367 C.3       1 <0>        -0.1426
     20 C12         4.4908    2.3361   -4.9792 C.3       1 <0>        -0.1374
     21 C13         5.7018    3.2678   -5.0149 C.3       1 <0>        -0.1490
     22 C14         6.9015    2.6299   -4.2941 C.3       1 <0>        -0.0015
     23 N3          1.7755   -0.9322   -2.3154 N.pl3     1 <0>        -0.8615
     24 H3         -0.8007    2.4209   -0.6428 H         1 <0>         0.1456
     25 H4         -0.2957    0.7104   -2.3390 H         1 <0>         0.1439
     26 H5          2.6849    1.2932    1.5444 H         1 <0>         0.1537
     27 H6          4.9662   -1.1498   -2.0051 H         1 <0>         0.4253
     28 H7          6.8978    1.3055   -0.0237 H         1 <0>         0.1200
     29 H8          7.2363   -0.1112   -1.0641 H         1 <0>         0.1170
     30 H9          8.0348    2.6325   -1.5256 H         1 <0>         0.1390
     31 H10         8.2651    1.2391   -2.6218 H         1 <0>         0.1341
     32 H11         3.3759    1.1722   -3.5332 H         1 <0>         0.1144
     33 H12         3.9036    2.7710   -2.9409 H         1 <0>         0.0942
     34 H13         4.6988    1.4531   -5.5834 H         1 <0>         0.0828
     35 H14         3.6251    2.8560   -5.3895 H         1 <0>         0.0968
     36 H15         5.9710    3.4669   -6.0522 H         1 <0>         0.1142
     37 H16         5.4464    4.2072   -4.5246 H         1 <0>         0.0891
     38 H17         7.7404    3.3259   -4.2865 H         1 <0>         0.1335
     39 H18         7.1899    1.7088   -4.8005 H         1 <0>         0.1296
     40 H19         1.1429   -1.1126   -3.0282 H         1 <0>         0.4165
     41 H20         2.6097   -1.4253   -2.2708 H         1 <0>         0.3970
     42 H21         6.0926    3.1625   -2.5144 H         1 <0>         0.4240
@<TRIPOS>BOND
     1    1    6 ar
     2    1    2 ar
     3    1   24 1
     4    2    3 ar
     5    2   25 1
     6    3    4 ar
     7    3   23 1
     8    4    5 ar
     9    4    8 1
    10    5    6 ar
    11    5   26 1
    12    6    7 1
    13    8    9 2
    14    8   10 2
    15    8   11 1
    16   11   12 1
    17   11   27 1
    18   12   13 1
    19   12   17 1
    20   12   14 1
    21   14   15 1
    22   14   28 1
    23   14   29 1
    24   15   16 1
    25   15   30 1
    26   15   31 1
    27   16   22 1
    28   16   17 1
    29   16   42 1
    30   17   18 1
    31   17   19 1
    32   19   20 1
    33   19   32 1
    34   19   33 1
    35   20   21 1
    36   20   34 1
    37   20   35 1
    38   21   22 1
    39   21   36 1
    40   21   37 1
    41   22   38 1
    42   22   39 1
    43   23   40 1
    44   23   41 1
@<TRIPOS>MOLECULE
ZINC57846284
   49    51     0     0     0
SMALL
USER_CHARGES

@<TRIPOS>ATOM
      1 C1         -0.0187    1.5258    0.0104 C.3       1 <0>        -0.1738
      2 C2          0.0021   -0.0041    0.0020 C.3       1 <0>        -0.1443
      3 C3          0.7182   -0.4975   -1.2568 C.3       1 <0>         0.0116
      4 H1          1.7103   -0.0491   -1.3098 H         1 <0>         0.1535
      5 C4          0.8493   -2.0210   -1.2049 C.3       1 <0>         0.0921
      6 N1          1.4265   -2.5045   -2.4616 N.am      1 <0>        -0.5938
      7 C5          0.7018   -2.8520   -3.5434 C.2       1 <0>         0.5238
      8 O1         -0.5050   -2.8246   -3.6560 O.2       1 <0>        -0.4552
      9 C6          1.7095   -3.2835   -4.5904 C.3       1 <0>         0.1732
     10 N2          3.0067   -3.1130   -3.9134 N.am      1 <0>        -0.7071
     11 C7          2.7386   -2.6502   -2.6790 C.2       1 <0>         0.6979
     12 O2          3.5927   -2.3960   -1.8525 O.2       1 <0>        -0.5172
     13 C8          1.6234   -2.3824   -5.8239 C.3       1 <0>        -0.1501
     14 C9          1.4950   -4.7261   -4.9699 C.ar      1 <0>        -0.1157
     15 C10         0.2278   -5.2765   -4.9161 C.ar      1 <0>        -0.1132
     16 C11         0.0401   -6.5984   -5.2622 C.ar      1 <0>        -0.1120
     17 C12         1.1138   -7.3818   -5.6660 C.ar      1 <0>        -0.0533
     18 C13         2.3747   -6.8324   -5.7244 C.ar      1 <0>        -0.0675
     19 C14         2.5613   -5.5003   -5.3774 C.ar      1 <0>        -0.0928
     20 C15         3.5813   -7.6174   -6.1682 C.3       1 <0>        -0.0850
     21 C16         3.3015   -9.1173   -6.0995 C.3       1 <0>        -0.1228
     22 C17         1.9897   -9.3995   -6.8412 C.3       1 <0>        -0.1227
     23 C18         0.8386   -8.8194   -6.0219 C.3       1 <0>        -0.0888
     24 N3         -0.0570   -0.1128   -2.4438 N.4       1 <0>        -0.6375
     25 H2          1.0039    1.9031    0.0027 H         1 <0>         0.0750
     26 H3         -0.5459    1.8868   -0.8726 H         1 <0>         0.0527
     27 H4         -0.5289    1.8773    0.9072 H         1 <0>         0.0886
     28 H5          0.5293   -0.3651    0.8851 H         1 <0>         0.1204
     29 H6         -1.0205   -0.3814    0.0098 H         1 <0>         0.0956
     30 H7          1.4980   -2.3018   -0.3753 H         1 <0>         0.1473
     31 H8         -0.1357   -2.4657   -1.0627 H         1 <0>         0.1262
     32 H9          3.8833   -3.2959   -4.2861 H         1 <0>         0.4490
     33 H10         1.8200   -1.3502   -5.5341 H         1 <0>         0.0680
     34 H11         2.3630   -2.7007   -6.5586 H         1 <0>         0.0941
     35 H12         0.6261   -2.4545   -6.2576 H         1 <0>         0.0933
     36 H13        -0.6121   -4.6736   -4.6040 H         1 <0>         0.1356
     37 H14        -0.9498   -7.0281   -5.2185 H         1 <0>         0.1296
     38 H15         3.5503   -5.0687   -5.4226 H         1 <0>         0.1217
     39 H16         3.8300   -7.3448   -7.1938 H         1 <0>         0.0814
     40 H17         4.4238   -7.3789   -5.5191 H         1 <0>         0.0770
     41 H18         4.1163   -9.6647   -6.5735 H         1 <0>         0.0736
     42 H19         3.2082   -9.4259   -5.0583 H         1 <0>         0.0668
     43 H20         2.0149   -8.9283   -7.8238 H         1 <0>         0.0679
     44 H21         1.8552  -10.4754   -6.9528 H         1 <0>         0.0736
     45 H22         0.7202   -9.3999   -5.1070 H         1 <0>         0.0819
     46 H23        -0.0812   -8.8757   -6.6042 H         1 <0>         0.0805
     47 H24        -0.1435    0.8919   -2.4780 H         1 <0>         0.4388
     48 H25         0.4152   -0.4382   -3.2739 H         1 <0>         0.4239
     49 H26        -0.9754   -0.5279   -2.3947 H         1 <0>         0.4383
@<TRIPOS>BOND
     1    1    2 1
     2    1   25 1
     3    1   26 1
     4    1   27 1
     5    2    3 1
     6    2   28 1
     7    2   29 1
     8    3    4 1
     9    3    5 1
    10    3   24 1
    11    5    6 1
    12    5   30 1
    13    5   31 1
    14    6   11 am
    15    6    7 am
    16    7    8 2
    17    7    9 1
    18    9   10 1
    19    9   13 1
    20    9   14 1
    21   10   11 am
    22   10   32 1
    23   11   12 2
    24   13   33 1
    25   13   34 1
    26   13   35 1
    27   14   19 ar
    28   14   15 ar
    29   15   16 ar
    30   15   36 1
    31   16   17 ar
    32   16   37 1
    33   17   23 1
    34   17   18 ar
    35   18   19 ar
    36   18   20 1
    37   19   38 1
    38   20   21 1
    39   20   39 1
    40   20   40 1
    41   21   22 1
    42   21   41 1
    43   21   42 1
    44   22   23 1
    45   22   43 1
    46   22   44 1
    47   23   45 1
    48   23   46 1
    49   24   47 1
    50   24   48 1
    51   24   49 1
@<TRIPOS>MOLECULE
ZINC63213138
   39    40     0     0     0
SMALL
USER_CHARGES

@<TRIPOS>ATOM
      1 C1         -0.0167    1.3778    0.0096 C.ar      1 <0>        -0.1251
      2 C2          1.1711    2.0855    0.0021 C.ar      1 <0>        -0.0020
      3 C3          2.3776    1.4114   -0.0135 C.ar      1 <0>        -0.6794
      4 C4          2.3973    0.0292   -0.0216 C.ar      1 <0>         0.0017
      5 C5          1.2095   -0.6792   -0.0136 C.ar      1 <0>        -0.1126
      6 C6          0.0021   -0.0041    0.0020 C.ar      1 <0>        -0.0257
      7 Br1         1.2358   -2.5700   -0.0253 Br        1 <0>        -0.0216
      8 S1          3.8908    2.3140   -0.0237 S.o2      1 <0>         2.6903
      9 O1          4.8720    1.4555   -0.5890 O.2       1 <0>        -0.9426
     10 O2          3.5963    3.5945   -0.5648 O.2       1 <0>        -0.9325
     11 N1          4.3271    2.5563    1.5553 N.pl3     1 <0>        -1.1370
     12 C7          4.6707    1.4128    2.4041 C.3       1 <0>         0.1306
     13 H1          5.0127    0.5950    1.7697 H         1 <0>         0.1218
     14 C8          3.4082    0.9592    3.1617 C.3       1 <0>        -0.1410
     15 C9          3.7291    0.0884    4.3461 C.3       1 <0>        -0.1236
     16 C10         3.8137    0.9806    5.6014 C.3       1 <0>        -0.1336
     17 C11         5.0903    1.6718    5.7058 C.3       1 <0>        -0.1136
     18 C12         5.3392    2.6288    4.5221 C.3       1 <0>        -0.1518
     19 C13         5.8171    1.8217    3.3486 C.3       1 <0>         0.0316
     20 H2          6.3087    0.9214    3.7170 H         1 <0>         0.1567
     21 N2          6.7936    2.6183    2.5937 N.4       1 <0>        -0.6394
     22 H3         -0.9592    1.9049    0.0260 H         1 <0>         0.1493
     23 H4          1.1560    3.1654    0.0080 H         1 <0>         0.1494
     24 H5          3.3402   -0.4974   -0.0346 H         1 <0>         0.1490
     25 H6         -0.9257   -0.5568    0.0083 H         1 <0>         0.1480
     26 H7          4.3551    3.4554    1.9182 H         1 <0>         0.4209
     27 H8          2.8689    1.8409    3.5080 H         1 <0>         0.0884
     28 H9          2.7675    0.4024    2.4778 H         1 <0>         0.0854
     29 H10         2.9430   -0.6551    4.4776 H         1 <0>         0.0833
     30 H11         4.6852   -0.4099    4.1859 H         1 <0>         0.0705
     31 H12         3.0140    1.7203    5.5633 H         1 <0>         0.0699
     32 H13         3.6754    0.3592    6.4861 H         1 <0>         0.0768
     33 H14         5.1066    2.2451    6.6327 H         1 <0>         0.0837
     34 H15         5.8906    0.9324    5.7362 H         1 <0>         0.0725
     35 H16         4.4115    3.1384    4.2620 H         1 <0>         0.1002
     36 H17         6.0980    3.3615    4.7969 H         1 <0>         0.0933
     37 H18         6.3431    3.4432    2.2267 H         1 <0>         0.4287
     38 H19         7.5491    2.8912    3.2043 H         1 <0>         0.4402
     39 H20         7.1595    2.0676    1.8314 H         1 <0>         0.4395
@<TRIPOS>BOND
     1    1    6 ar
     2    1    2 ar
     3    1   22 1
     4    2    3 ar
     5    2   23 1
     6    3    4 ar
     7    3    8 1
     8    4    5 ar
     9    4   24 1
    10    5    6 ar
    11    5    7 1
    12    6   25 1
    13    8    9 2
    14    8   10 2
    15    8   11 1
    16   11   12 1
    17   11   26 1
    18   12   13 1
    19   12   19 1
    20   12   14 1
    21   14   15 1
    22   14   27 1
    23   14   28 1
    24   15   16 1
    25   15   29 1
    26   15   30 1
    27   16   17 1
    28   16   31 1
    29   16   32 1
    30   17   18 1
    31   17   33 1
    32   17   34 1
    33   18   19 1
    34   18   35 1
    35   18   36 1
    36   19   20 1
    37   19   21 1
    38   21   37 1
    39   21   38 1
    40   21   39 1
@<TRIPOS>MOLECULE
ZINC25424903
   47    49     0     0     0
SMALL
USER_CHARGES
ethyl N-[2-oxo-4-[(p-tolylamino)methyl]chromen-7-yl]carbamate
@<TRIPOS>ATOM
      1 C1          5.0882    7.4829   -1.4844 C.3       1 <0>        -0.1598
      2 C2          3.6642    6.9234   -1.4863 C.3       1 <0>         0.0797
      3 O1          3.6362    5.6686   -0.7562 O.3       1 <0>        -0.3558
      4 C3          2.4483    5.0416   -0.6637 C.2       1 <0>         0.6567
      5 O2          1.4620    5.5296   -1.1789 O.2       1 <0>        -0.5510
      6 N1          2.3532    3.8727    0.0004 N.am      1 <0>        -0.6656
      7 C4          1.1447    3.1754    0.0159 C.2       1 <0>         0.2651
      8 C5          1.1503    1.7804    0.0035 C.2       1 <0>        -0.1369
      9 C6         -0.0232    1.0849    0.0183 C.2       1 <0>        -0.0109
     10 C7         -1.2411    1.7749    0.0403 C.2       1 <0>        -0.1754
     11 C8         -2.5153    1.0539    0.0627 C.2       1 <0>         0.1259
     12 C9         -3.6633    1.7799    0.0902 C.2       1 <0>        -0.2540
     13 C10        -3.6022    3.1885    0.1021 C.2       1 <0>         0.5304
     14 O3         -4.6389    3.8273    0.1272 O.3       1 <0>        -0.3417
     15 O4         -2.4307    3.8435    0.0868 O.3       1 <0>        -0.2357
     16 C11        -1.2537    3.1822    0.0594 C.2       1 <0>         0.1635
     17 C12        -0.0525    3.8743    0.0440 C.2       1 <0>        -0.1390
     18 C13        -2.5525   -0.4526    0.0489 C.3       1 <0>         0.1464
     19 N2         -2.3004   -0.9596    1.4001 N.pl3     1 <0>        -0.7615
     20 C14        -2.2855   -2.3358    1.6381 C.ar      1 <0>         0.2015
     21 C15        -2.5152   -3.2250    0.5959 C.ar      1 <0>        -0.1915
     22 C16        -2.4949   -4.5853    0.8338 C.ar      1 <0>        -0.0733
     23 C17        -2.2569   -5.0622    2.1098 C.ar      1 <0>        -0.1279
     24 C18        -2.0330   -4.1796    3.1506 C.ar      1 <0>        -0.0723
     25 C19        -2.0466   -2.8183    2.9187 C.ar      1 <0>        -0.1803
     26 C20        -2.2408   -6.5471    2.3666 C.3       1 <0>        -0.1167
     27 H1          5.1094    8.4335   -2.0375 H         1 <0>         0.0915
     28 H2          5.7657    6.7629   -1.9667 H         1 <0>         0.0717
     29 H3          5.4133    7.6546   -0.4477 H         1 <0>         0.0714
     30 H4          2.9867    7.6434   -1.0040 H         1 <0>         0.0779
     31 H5          3.3391    6.7517   -2.5230 H         1 <0>         0.0783
     32 H6          3.2283    3.4684    0.5302 H         1 <0>         0.4641
     33 H7          2.0896    1.2478   -0.0177 H         1 <0>         0.1617
     34 H8         -0.0128    0.0050    0.0086 H         1 <0>         0.1643
     35 H9         -4.6203    1.2795    0.1025 H         1 <0>         0.1983
     36 H10        -0.0493    4.9543    0.0542 H         1 <0>         0.1754
     37 H11        -3.5420   -0.7918   -0.2914 H         1 <0>         0.0968
     38 H12        -1.7794   -0.8322   -0.6354 H         1 <0>         0.0972
     39 H13        -2.1229   -0.2564    2.2272 H         1 <0>         0.4224
     40 H14        -2.7056   -2.8531   -0.4000 H         1 <0>         0.1186
     41 H15        -2.6694   -5.2773    0.0231 H         1 <0>         0.1239
     42 H16        -1.8478   -4.5554    4.1460 H         1 <0>         0.1248
     43 H17        -1.8714   -2.1295    3.7319 H         1 <0>         0.1208
     44 H18        -2.0373   -6.7328    3.4315 H         1 <0>         0.0651
     45 H19        -1.4554   -7.0163    1.7559 H         1 <0>         0.0684
     46 H20        -3.2180   -6.9759    2.0998 H         1 <0>         0.0685
     47 H21        -4.6073    4.9268    0.1368 H         1 <0>         0.5189
@<TRIPOS>BOND
     1    1    2 1
     2    1   27 1
     3    1   28 1
     4    1   29 1
     5    2    3 1
     6    2   30 1
     7    2   31 1
     8    3    4 1
     9    4    5 2
    10    4    6 am
    11    6    7 2
    12    6   32 1
    13    7   17 1
    14    7    8 1
    15    8    9 2
    16    8   33 1
    17    9   10 1
    18    9   34 1
    19   10   16 1
    20   10   11 2
    21   11   12 1
    22   11   18 1
    23   12   13 2
    24   12   35 1
    25   13   14 1
    26   13   15 1
    27   14   47 1
    28   15   16 1
    29   16   17 2
    30   17   36 1
    31   18   19 1
    32   18   37 1
    33   18   38 1
    34   19   20 1
    35   19   39 1
    36   20   25 ar
    37   20   21 ar
    38   21   22 ar
    39   21   40 1
    40   22   23 ar
    41   22   41 1
    42   23   24 ar
    43   23   26 1
    44   24   25 ar
    45   24   42 1
    46   25   43 1
    47   26   44 1
    48   26   45 1
    49   26   46 1
@<TRIPOS>MOLECULE
ZINC46852983
   59    61     0     0     0
SMALL
USER_CHARGES

@<TRIPOS>ATOM
      1 C1         -0.1524    1.3896   -0.1305 C.3       1 <0>        -0.1804
      2 C2         -0.1509   -0.1341    0.0089 C.3       1 <0>         0.0146
      3 H1          0.2109   -0.5832   -0.9161 H         1 <0>         0.1468
      4 C3          0.7654   -0.5395    1.1651 C.3       1 <0>         0.1150
      5 N1          0.6775   -1.9869    1.3735 N.am      1 <0>        -0.7675
      6 C4          1.3206   -2.5587    2.4107 C.2       1 <0>         0.7085
      7 O1          1.9737   -1.8733    3.1736 O.2       1 <0>        -0.5675
      8 N2          1.2397   -3.8904    2.6024 N.am      1 <0>        -0.6143
      9 C5          0.4528   -4.7162    1.6832 C.3       1 <0>         0.0671
     10 C6          1.9388   -4.5119    3.7299 C.3       1 <0>         0.1780
     11 C7          1.0299   -4.5380    4.9317 C.ar      1 <0>        -0.1415
     12 C8          1.1648   -3.5833    5.9214 C.ar      1 <0>        -0.0787
     13 C9          0.3317   -3.6070    7.0243 C.ar      1 <0>        -0.1299
     14 C10        -0.6388   -4.5854    7.1399 C.ar      1 <0>        -0.0950
     15 C11        -0.7779   -5.5417    6.1531 C.ar      1 <0>        -0.1483
     16 C12         0.0535   -5.5170    5.0425 C.ar      1 <0>         0.1173
     17 O2         -0.0851   -6.4535    4.0675 O.3       1 <0>        -0.4999
     18 N3         -1.5168   -0.6024    0.2791 N.4       1 <0>        -0.3813
     19 C13        -2.3630   -0.3399   -0.8918 C.3       1 <0>        -0.0270
     20 C14        -3.7571   -0.9301   -0.6559 C.3       1 <0>         0.1002
     21 N4         -4.2842   -0.3909    0.6073 N.pl3     1 <0>        -0.6437
     22 C15        -3.4301   -0.4653    1.8027 C.3       1 <0>         0.1034
     23 C16        -2.0513    0.1030    1.4507 C.3       1 <0>        -0.0320
     24 C17        -5.5595    0.1752    0.6699 C.ar      1 <0>         0.1958
     25 C18        -6.3059    0.3395   -0.4901 C.ar      1 <0>        -0.1870
     26 C19        -7.5667    0.8992   -0.4245 C.ar      1 <0>        -0.0709
     27 C20        -8.0862    1.2961    0.7940 C.ar      1 <0>        -0.1559
     28 C21        -7.3459    1.1339    1.9507 C.ar      1 <0>        -0.0705
     29 C22        -6.0867    0.5698    1.8930 C.ar      1 <0>        -0.1861
     30 H2          0.8611    1.7371   -0.3311 H         1 <0>         0.1119
     31 H3         -0.8052    1.6784   -0.9543 H         1 <0>         0.0884
     32 H4         -0.5142    1.8387    0.7944 H         1 <0>         0.0868
     33 H5          1.7938   -0.2686    0.9259 H         1 <0>         0.1130
     34 H6          0.4552   -0.0222    2.0731 H         1 <0>         0.0965
     35 H7          0.1565   -2.5338    0.7649 H         1 <0>         0.3895
     36 H8          1.0884   -5.0564    0.8656 H         1 <0>         0.0601
     37 H9          0.0566   -5.5791    2.2186 H         1 <0>         0.1060
     38 H10        -0.3721   -4.1277    1.2815 H         1 <0>         0.0492
     39 H11         2.2207   -5.5311    3.4654 H         1 <0>         0.0907
     40 H12         2.8343   -3.9364    3.9640 H         1 <0>         0.0967
     41 H13         1.9219   -2.8182    5.8334 H         1 <0>         0.1311
     42 H14         0.4392   -2.8603    7.7972 H         1 <0>         0.1276
     43 H15        -1.2881   -4.6019    8.0027 H         1 <0>         0.1291
     44 H16        -1.5360   -6.3056    6.2438 H         1 <0>         0.1301
     45 H17         0.4478   -7.2482    4.2069 H         1 <0>         0.3935
     46 H18        -2.4452    0.7359   -1.0469 H         1 <0>         0.1376
     47 H19        -1.9173   -0.8013   -1.7731 H         1 <0>         0.1417
     48 H20        -4.4170   -0.6505   -1.4771 H         1 <0>         0.1288
     49 H21        -3.6889   -2.0160   -0.5904 H         1 <0>         0.0865
     50 H22        -3.8737    0.1216    2.6070 H         1 <0>         0.1273
     51 H23        -3.3288   -1.5042    2.1165 H         1 <0>         0.0851
     52 H24        -1.3761   -0.0320    2.2956 H         1 <0>         0.1408
     53 H25        -2.1430    1.1654    1.2247 H         1 <0>         0.1399
     54 H26        -5.9005    0.0304   -1.4421 H         1 <0>         0.1223
     55 H27        -8.1476    1.0273   -1.3260 H         1 <0>         0.1283
     56 H28        -9.0722    1.7342    0.8424 H         1 <0>         0.1267
     57 H29        -7.7546    1.4450    2.9008 H         1 <0>         0.1283
     58 H30        -5.5108    0.4392    2.7973 H         1 <0>         0.1223
     59 H31        -1.5005   -1.5942    0.4637 H         1 <0>         0.4150
@<TRIPOS>BOND
     1    1    2 1
     2    1   30 1
     3    1   31 1
     4    1   32 1
     5    2    3 1
     6    2    4 1
     7    2   18 1
     8    4    5 1
     9    4   33 1
    10    4   34 1
    11    5    6 am
    12    5   35 1
    13    6    7 2
    14    6    8 am
    15    8    9 1
    16    8   10 1
    17    9   36 1
    18    9   37 1
    19    9   38 1
    20   10   11 1
    21   10   39 1
    22   10   40 1
    23   11   16 ar
    24   11   12 ar
    25   12   13 ar
    26   12   41 1
    27   13   14 ar
    28   13   42 1
    29   14   15 ar
    30   14   43 1
    31   15   16 ar
    32   15   44 1
    33   16   17 1
    34   17   45 1
    35   18   23 1
    36   18   19 1
    37   18   59 1
    38   19   20 1
    39   19   46 1
    40   19   47 1
    41   20   21 1
    42   20   48 1
    43   20   49 1
    44   21   22 1
    45   21   24 1
    46   22   23 1
    47   22   50 1
    48   22   51 1
    49   23   52 1
    50   23   53 1
    51   24   29 ar
    52   24   25 ar
    53   25   26 ar
    54   25   54 1
    55   26   27 ar
    56   26   55 1
    57   27   28 ar
    58   27   56 1
    59   28   29 ar
    60   28   57 1
    61   29   58 1
@<TRIPOS>MOLECULE
ZINC62473535
   62    63     0     0     0
SMALL
USER_CHARGES

@<TRIPOS>ATOM
      1 C1         -0.1609    1.7241   -0.3455 C.3       1 <0>        -0.1877
      2 C2          0.0820    0.2197   -0.2082 C.3       1 <0>        -0.0192
      3 N1         -1.1875   -0.4559    0.0913 N.4       1 <0>        -0.3817
      4 C3         -2.0936   -0.3273   -1.0577 C.3       1 <0>        -0.0142
      5 C4         -3.4635   -0.9034   -0.6939 C.3       1 <0>        -0.1893
      6 C5         -0.9342   -1.8781    0.3584 C.3       1 <0>        -0.0263
      7 C6         -0.0926   -2.0165    1.6286 C.3       1 <0>         0.1154
      8 N2          0.1600   -3.4347    1.8949 N.am      1 <0>        -0.7496
      9 C7          0.8861   -3.7996    2.9702 C.2       1 <0>         0.7128
     10 O1          1.2534   -2.9598    3.7691 O.2       1 <0>        -0.5766
     11 N3          1.2050   -5.0953    3.1599 N.am      1 <0>        -0.6221
     12 C8          0.8708   -6.1046    2.1459 C.3       1 <0>         0.1161
     13 C9          0.0802   -7.2331    2.8154 C.3       1 <0>        -0.1442
     14 C10         0.8791   -7.7755    4.0027 C.3       1 <0>         0.1451
     15 C11         1.0918   -6.6601    5.0288 C.3       1 <0>        -0.1458
     16 C12         1.8989   -5.5243    4.3819 C.3       1 <0>         0.1301
     17 N4          0.1409   -8.8771    4.6253 N.am      1 <0>        -0.7313
     18 C13         0.8017   -9.8210    5.3245 C.2       1 <0>         0.5196
     19 O2          2.0076   -9.7584    5.4382 O.2       1 <0>        -0.5315
     20 C14         0.0423  -10.9542    5.9649 C.3       1 <0>        -0.1063
     21 C15        -0.6995  -11.7453    4.8856 C.3       1 <0>        -0.1084
     22 C16        -1.4704  -12.8958    5.5358 C.3       1 <0>        -0.1190
     23 C17        -0.4910  -13.8196    6.2627 C.3       1 <0>        -0.1241
     24 C18         0.2508  -13.0285    7.3420 C.3       1 <0>        -0.1215
     25 C19         1.0218  -11.8780    6.6918 C.3       1 <0>        -0.1001
     26 H1          0.7928    2.2358   -0.4746 H         1 <0>         0.1079
     27 H2         -0.7944    1.9122   -1.2123 H         1 <0>         0.0812
     28 H3         -0.6541    2.0959    0.5526 H         1 <0>         0.0813
     29 H4          0.4893   -0.1692   -1.1414 H         1 <0>         0.1317
     30 H5          0.7898    0.0383    0.6007 H         1 <0>         0.1339
     31 H6         -2.2002    0.7252   -1.3203 H         1 <0>         0.1357
     32 H7         -1.6835   -0.8739   -1.9069 H         1 <0>         0.1307
     33 H8         -4.1617   -0.7245   -1.5116 H         1 <0>         0.1078
     34 H9         -3.3726   -1.9759   -0.5218 H         1 <0>         0.0795
     35 H10        -3.8322   -0.4203    0.2109 H         1 <0>         0.0811
     36 H11        -1.8832   -2.3971    0.4930 H         1 <0>         0.1389
     37 H12        -0.3969   -2.3157   -0.4830 H         1 <0>         0.1368
     38 H13         0.8564   -1.4974    1.4940 H         1 <0>         0.0879
     39 H14        -0.6299   -1.5788    2.4700 H         1 <0>         0.0889
     40 H15        -0.1953   -4.1112    1.2974 H         1 <0>         0.4016
     41 H16         0.2651   -5.6490    1.3625 H         1 <0>         0.0776
     42 H17         1.7875   -6.5067    1.7145 H         1 <0>         0.0819
     43 H18        -0.8771   -6.8480    3.1665 H         1 <0>         0.0745
     44 H19        -0.0910   -8.0339    2.0959 H         1 <0>         0.0877
     45 H20         1.8464   -8.1378    3.6544 H         1 <0>         0.0928
     46 H21         0.1250   -6.2804    5.3591 H         1 <0>         0.0697
     47 H22         1.6406   -7.0530    5.8847 H         1 <0>         0.0869
     48 H23         2.8977   -5.8800    4.1291 H         1 <0>         0.0769
     49 H24         1.9717   -4.6856    5.0743 H         1 <0>         0.1005
     50 H25        -0.8235   -8.9272    4.5343 H         1 <0>         0.4001
     51 H26        -0.6762  -10.5522    6.6792 H         1 <0>         0.0974
     52 H27        -1.3972  -11.0872    4.3678 H         1 <0>         0.0634
     53 H28         0.0191  -12.1473    4.1714 H         1 <0>         0.0685
     54 H29        -2.1890  -12.4938    6.2501 H         1 <0>         0.0647
     55 H30        -1.9989  -13.4594    4.7670 H         1 <0>         0.0670
     56 H31        -1.0403  -14.6392    6.7260 H         1 <0>         0.0653
     57 H32         0.2275  -14.2216    5.5485 H         1 <0>         0.0636
     58 H33        -0.4678  -12.6265    8.0563 H         1 <0>         0.0629
     59 H34         0.9485  -13.6866    7.8599 H         1 <0>         0.0681
     60 H35         1.7403  -12.2800    5.9775 H         1 <0>         0.0703
     61 H36         1.5502  -11.3144    7.4607 H         1 <0>         0.0696
     62 H37        -1.6111   -0.0316    0.9029 H         1 <0>         0.4253
@<TRIPOS>BOND
     1    1    2 1
     2    1   26 1
     3    1   27 1
     4    1   28 1
     5    2    3 1
     6    2   29 1
     7    2   30 1
     8    3    4 1
     9    3    6 1
    10    3   62 1
    11    4    5 1
    12    4   31 1
    13    4   32 1
    14    5   33 1
    15    5   34 1
    16    5   35 1
    17    6    7 1
    18    6   36 1
    19    6   37 1
    20    7    8 1
    21    7   38 1
    22    7   39 1
    23    8    9 am
    24    8   40 1
    25    9   10 2
    26    9   11 am
    27   11   16 1
    28   11   12 1
    29   12   13 1
    30   12   41 1
    31   12   42 1
    32   13   14 1
    33   13   43 1
    34   13   44 1
    35   14   15 1
    36   14   17 1
    37   14   45 1
    38   15   16 1
    39   15   46 1
    40   15   47 1
    41   16   48 1
    42   16   49 1
    43   17   18 am
    44   17   50 1
    45   18   19 2
    46   18   20 1
    47   20   25 1
    48   20   21 1
    49   20   51 1
    50   21   22 1
    51   21   52 1
    52   21   53 1
    53   22   23 1
    54   22   54 1
    55   22   55 1
    56   23   24 1
    57   23   56 1
    58   23   57 1
    59   24   25 1
    60   24   58 1
    61   24   59 1
    62   25   60 1
    63   25   61 1
@<TRIPOS>MOLECULE
ZINC65375382
   48    50     0     0     0
SMALL
USER_CHARGES

@<TRIPOS>ATOM
      1 C1         -0.0184    1.5028    0.0103 C.3       1 <0>        -0.1230
      2 C2          0.0021   -0.0041    0.0020 C.ar      1 <0>        -0.0969
      3 C3          0.0058   -0.6875   -1.2005 C.ar      1 <0>        -0.0620
      4 C4          0.0245   -2.0681   -1.2117 C.ar      1 <0>        -0.1634
      5 C5          0.0401   -2.7708   -0.0132 C.ar      1 <0>         0.1936
      6 C6          0.0368   -2.0814    1.1925 C.ar      1 <0>        -0.1644
      7 C7          0.0229   -0.7002    1.1964 C.ar      1 <0>        -0.0320
      8 C8          0.0246    0.0488    2.5041 C.3       1 <0>        -0.1260
      9 N1          0.0585   -4.1674   -0.0209 N.pl3     1 <0>        -0.4615
     10 C9          0.0702   -5.0592   -1.1939 C.3       1 <0>         0.4384
     11 H1          0.9633   -4.8862   -1.7943 H         1 <0>         0.1428
     12 N2          0.0882   -6.4150   -0.6274 N.pl3     1 <0>        -0.6046
     13 C10         0.0871   -6.3226    0.6564 C.cat     1 <0>         0.5078
     14 N3          0.0763   -5.0295    1.0875 N.pl3     1 <0>        -0.4458
     15 C11         0.1022   -7.5126    1.5809 C.3       1 <0>        -0.0977
     16 C12        -1.3351   -7.9336    1.8938 C.3       1 <0>        -0.0922
     17 C13        -1.3207   -9.2148    2.7299 C.3       1 <0>        -0.1526
     18 C14        -2.0331   -6.8206    2.6781 C.3       1 <0>        -0.1673
     19 C15        -1.1693   -4.8506   -2.0253 C.2       1 <0>        -0.3603
     20 C16        -2.1070   -3.9337   -1.6577 C.2       1 <0>         0.2269
     21 N4         -3.1994   -3.7619   -2.4060 N.2       1 <0>        -0.5384
     22 C17        -3.3974   -4.4566   -3.4945 C.2       1 <0>         0.4149
     23 N5         -2.5086   -5.3791   -3.9123 N.am      1 <0>        -0.6238
     24 H2         -2.6770   -5.8833   -4.7237 H         1 <0>         0.4340
     25 C18        -1.3801   -5.5965   -3.2034 C.2       1 <0>         0.5404
     26 O1         -0.5631   -6.4241   -3.5713 O.2       1 <0>        -0.5290
     27 H3          1.0042    1.8801    0.0026 H         1 <0>         0.0774
     28 H4         -0.5455    1.8639   -0.8728 H         1 <0>         0.0729
     29 H5         -0.5286    1.8543    0.9071 H         1 <0>         0.0745
     30 H6         -0.0064   -0.1406   -2.1317 H         1 <0>         0.1393
     31 H7          0.0266   -2.6011   -2.1510 H         1 <0>         0.1281
     32 H8          0.0485   -2.6246    2.1258 H         1 <0>         0.1221
     33 H9         -1.0025    0.2151    2.8290 H         1 <0>         0.0813
     34 H10         0.5536   -0.5356    3.2569 H         1 <0>         0.0707
     35 H11         0.5239    1.0087    2.3724 H         1 <0>         0.0801
     36 H12         0.0778   -4.7484    2.0159 H         1 <0>         0.4692
     37 H13         0.6265   -8.3390    1.1009 H         1 <0>         0.1358
     38 H14         0.6128   -7.2471    2.5066 H         1 <0>         0.1319
     39 H15        -1.8719   -8.1135    0.9625 H         1 <0>         0.0841
     40 H16        -0.7838   -9.0349    3.6613 H         1 <0>         0.0682
     41 H17        -2.3446   -9.5147    2.9529 H         1 <0>         0.0739
     42 H18        -0.8233  -10.0077    2.1712 H         1 <0>         0.0672
     43 H19        -2.0434   -5.9079    2.0824 H         1 <0>         0.0467
     44 H20        -3.0571   -7.1205    2.9010 H         1 <0>         0.0785
     45 H21        -1.4963   -6.6407    3.6094 H         1 <0>         0.0710
     46 H22        -1.9674   -3.3468   -0.7619 H         1 <0>         0.1728
     47 H23        -4.2941   -4.2879   -4.0725 H         1 <0>         0.2239
     48 H24         0.0988   -7.2410   -1.1357 H         1 <0>         0.4722
@<TRIPOS>BOND
     1    1    2 1
     2    1   27 1
     3    1   28 1
     4    1   29 1
     5    2    7 ar
     6    2    3 ar
     7    3    4 ar
     8    3   30 1
     9    4    5 ar
    10    4   31 1
    11    5    6 ar
    12    5    9 1
    13    6    7 ar
    14    6   32 1
    15    7    8 1
    16    8   33 1
    17    8   34 1
    18    8   35 1
    19    9   14 1
    20    9   10 1
    21   10   11 1
    22   10   12 1
    23   10   19 1
    24   12   13 2
    25   12   48 1
    26   13   14 1
    27   13   15 1
    28   14   36 1
    29   15   16 1
    30   15   37 1
    31   15   38 1
    32   16   17 1
    33   16   18 1
    34   16   39 1
    35   17   40 1
    36   17   41 1
    37   17   42 1
    38   18   43 1
    39   18   44 1
    40   18   45 1
    41   19   25 1
    42   19   20 2
    43   20   21 1
    44   20   46 1
    45   21   22 2
    46   22   23 1
    47   22   47 1
    48   23   24 1
    49   23   25 am
    50   25   26 2
@<TRIPOS>MOLECULE
ZINC67299235
   44    47     0     0     0
SMALL
USER_CHARGES

@<TRIPOS>ATOM
      1 C1          8.0821   -1.1663   -3.2366 C.2       1 <0>        -0.2191
      2 C2          7.1361   -1.5188   -2.2468 C.2       1 <0>        -0.1674
      3 C3          6.5164   -0.3832   -1.8780 C.2       1 <0>        -0.0639
      4 O1          7.0340    0.6325   -2.5880 O.3       1 <0>        -0.1708
      5 C4          7.9839    0.1635   -3.4135 C.2       1 <0>        -0.0128
      6 C5          5.4260   -0.2701   -0.8439 C.3       1 <0>         0.2056
      7 N1          6.0240   -0.0330    0.4723 N.am      1 <0>        -0.7060
      8 C6          5.2348    0.1022    1.5565 C.2       1 <0>         0.5797
      9 O2          4.0254    0.1280    1.4290 O.2       1 <0>        -0.5318
     10 C7          5.8364    0.2187    2.8946 C.2       1 <0>        -0.2702
     11 C8          7.2130    0.2169    3.0690 C.2       1 <0>         0.1310
     12 C9          7.7208    0.3006    4.3905 C.ar      1 <0>        -0.1870
     13 C10         9.0913    0.5043    4.6123 C.ar      1 <0>        -0.0036
     14 C11         9.5629    0.6251    5.8863 C.ar      1 <0>        -0.1524
     15 C12         8.6942    0.5395    6.9730 C.ar      1 <0>         0.2203
     16 C13         7.3395    0.3189    6.7743 C.ar      1 <0>        -0.1562
     17 C14         6.8451    0.1869    5.4877 C.ar      1 <0>         0.1570
     18 O3          5.5297   -0.0722    5.2836 O.3       1 <0>        -0.2034
     19 C15         4.9992    0.3482    4.1034 C.2       1 <0>         0.5198
     20 N2          3.7841    0.8477    4.0394 N.pl3     1 <0>        -0.4644
     21 C16         2.9805    0.8361    5.1467 C.ar      1 <0>         0.0113
     22 C17         2.8919   -0.3124    5.9369 C.ar      1 <0>        -0.0609
     23 C18         2.0804   -0.3178    7.0522 C.ar      1 <0>        -0.1360
     24 C19         1.3540    0.8130    7.3895 C.ar      1 <0>         0.1478
     25 C20         1.4378    1.9552    6.6096 C.ar      1 <0>        -0.1355
     26 C21         2.2498    1.9746    5.4949 C.ar      1 <0>        -0.0555
     27 F1          0.5606    0.8015    8.4828 F         1 <0>        -0.1156
     28 O4          9.1774    0.6724    8.2340 O.3       1 <0>        -0.4795
     29 H1          8.7572   -1.8356   -3.7490 H         1 <0>         0.1559
     30 H2          6.9469   -2.5097   -1.8611 H         1 <0>         0.1534
     31 H3          8.5698    0.7540   -4.1023 H         1 <0>         0.2106
     32 H4          4.7681    0.5606   -1.0991 H         1 <0>         0.0990
     33 H5          4.8504   -1.1954   -0.8201 H         1 <0>         0.1107
     34 H6          6.9878    0.0267    0.5635 H         1 <0>         0.4069
     35 H7          7.8795    0.1531    2.2216 H         1 <0>         0.1826
     36 H8          9.7715    0.5650    3.7756 H         1 <0>         0.1655
     37 H9         10.6172    0.7879    6.0543 H         1 <0>         0.1630
     38 H10         6.6722    0.2499    7.6207 H         1 <0>         0.1664
     39 H11         3.4573   -1.1944    5.6748 H         1 <0>         0.1467
     40 H12         2.0108   -1.2053    7.6637 H         1 <0>         0.1597
     41 H13         0.8689    2.8334    6.8773 H         1 <0>         0.1614
     42 H14         2.3175    2.8669    4.8901 H         1 <0>         0.1548
     43 H15         9.1816    1.5829    8.5597 H         1 <0>         0.4180
     44 H16         3.4577    1.2243    3.2073 H         1 <0>         0.4649
@<TRIPOS>BOND
     1    1    5 2
     2    1    2 1
     3    1   29 1
     4    2    3 2
     5    2   30 1
     6    3    4 1
     7    3    6 1
     8    4    5 1
     9    5   31 1
    10    6    7 1
    11    6   32 1
    12    6   33 1
    13    7    8 am
    14    7   34 1
    15    8    9 2
    16    8   10 1
    17   10   19 1
    18   10   11 2
    19   11   12 1
    20   11   35 1
    21   12   17 ar
    22   12   13 ar
    23   13   14 ar
    24   13   36 1
    25   14   15 ar
    26   14   37 1
    27   15   16 ar
    28   15   28 1
    29   16   17 ar
    30   16   38 1
    31   17   18 1
    32   18   19 1
    33   19   20 2
    34   20   21 1
    35   20   44 1
    36   21   26 ar
    37   21   22 ar
    38   22   23 ar
    39   22   39 1
    40   23   24 ar
    41   23   40 1
    42   24   25 ar
    43   24   27 1
    44   25   26 ar
    45   25   41 1
    46   26   42 1
    47   28   43 1
@<TRIPOS>MOLECULE
ZINC37131639
   47    48     0     0     0
SMALL
USER_CHARGES

@<TRIPOS>ATOM
      1 C1         -0.0187    1.5258    0.0104 C.3       1 <0>        -0.1837
      2 C2          0.0021   -0.0041    0.0020 C.3       1 <0>         0.0283
      3 H1         -1.0207   -0.3809    0.0098 H         1 <0>         0.1345
      4 C3          0.7171   -0.4969   -1.2579 C.3       1 <0>        -0.1605
      5 C4          0.7351   -2.0282   -1.2620 C.3       1 <0>         0.1398
      6 H2          1.2925   -2.3839   -2.1285 H         1 <0>         0.1129
      7 C5          1.4100   -2.5244    0.0200 C.3       1 <0>        -0.1164
      8 H3          2.4474   -2.1904    0.0379 H         1 <0>         0.1109
      9 C6          0.6693   -1.9564    1.2325 C.3       1 <0>        -0.0070
     10 N1          0.7108   -0.4897    1.1921 N.4       1 <0>        -0.3818
     11 C7          0.0674    0.0497    2.3975 C.3       1 <0>        -0.0532
     12 C8          1.3646   -4.0532    0.0625 C.3       1 <0>        -0.1496
     13 N2         -0.6385   -2.5341   -1.3218 N.pl3     1 <0>        -0.7427
     14 C9         -1.2787   -2.6726   -2.5554 C.ar      1 <0>         0.2553
     15 C10        -0.6124   -2.3364   -3.7270 C.ar      1 <0>        -0.2144
     16 C11        -1.2482   -2.4749   -4.9452 C.ar      1 <0>         0.0301
     17 C12        -2.5467   -2.9472   -4.9994 C.ar      1 <0>        -0.7195
     18 C13        -3.2129   -3.2828   -3.8350 C.ar      1 <0>         0.0274
     19 C14        -2.5811   -3.1521   -2.6139 C.ar      1 <0>        -0.2070
     20 S1         -3.3545   -3.1213   -6.5556 S.o2      1 <0>         2.6964
     21 O1         -4.7507   -3.0657   -6.2970 O.2       1 <0>        -0.9551
     22 O2         -2.7093   -2.2258   -7.4505 O.2       1 <0>        -0.9586
     23 N3         -3.0354   -4.6508   -7.1045 N.pl3     1 <0>        -1.1206
     24 C15        -3.5474   -5.8128   -6.3740 C.3       1 <0>         0.0825
     25 H4          1.0039    1.9031    0.0027 H         1 <0>         0.0823
     26 H5         -0.5459    1.8868   -0.8726 H         1 <0>         0.1057
     27 H6         -0.5289    1.8773    0.9072 H         1 <0>         0.0841
     28 H7          0.1888   -0.1368   -2.1407 H         1 <0>         0.1178
     29 H8          1.7401   -0.1209   -1.2665 H         1 <0>         0.1001
     30 H9         -0.3678   -2.2912    1.2138 H         1 <0>         0.1238
     31 H10         1.1471   -2.3079    2.1470 H         1 <0>         0.1374
     32 H11        -0.9712   -0.2791    2.4331 H         1 <0>         0.1212
     33 H12         0.5930   -0.3103    3.2820 H         1 <0>         0.1256
     34 H13         0.1031    1.1388    2.3719 H         1 <0>         0.1285
     35 H14         1.8894   -4.4564   -0.8036 H         1 <0>         0.0798
     36 H15         1.8451   -4.4057    0.9751 H         1 <0>         0.0726
     37 H16         0.3269   -4.3864    0.0461 H         1 <0>         0.0683
     38 H17        -1.1034   -2.7730   -0.5046 H         1 <0>         0.3989
     39 H18         0.4015   -1.9668   -3.6854 H         1 <0>         0.1303
     40 H19        -0.7307   -2.2137   -5.8565 H         1 <0>         0.1429
     41 H20        -4.2271   -3.6514   -3.8808 H         1 <0>         0.1438
     42 H21        -3.1004   -3.4186   -1.7052 H         1 <0>         0.1305
     43 H22        -2.5095   -4.7772   -7.9097 H         1 <0>         0.4210
     44 H23        -3.1490   -5.8087   -5.3595 H         1 <0>         0.0575
     45 H24        -4.6359   -5.7681   -6.3371 H         1 <0>         0.0707
     46 H25        -3.2384   -6.7264   -6.8821 H         1 <0>         0.0858
     47 H26         1.6711   -0.1818    1.1594 H         1 <0>         0.4235
@<TRIPOS>BOND
     1    1    2 1
     2    1   25 1
     3    1   26 1
     4    1   27 1
     5    2    3 1
     6    2   10 1
     7    2    4 1
     8    4    5 1
     9    4   28 1
    10    4   29 1
    11    5    6 1
    12    5    7 1
    13    5   13 1
    14    7    8 1
    15    7    9 1
    16    7   12 1
    17    9   10 1
    18    9   30 1
    19    9   31 1
    20   10   11 1
    21   10   47 1
    22   11   32 1
    23   11   33 1
    24   11   34 1
    25   12   35 1
    26   12   36 1
    27   12   37 1
    28   13   14 1
    29   13   38 1
    30   14   19 ar
    31   14   15 ar
    32   15   16 ar
    33   15   39 1
    34   16   17 ar
    35   16   40 1
    36   17   18 ar
    37   17   20 1
    38   18   19 ar
    39   18   41 1
    40   19   42 1
    41   20   21 2
    42   20   22 2
    43   20   23 1
    44   23   24 1
    45   23   43 1
    46   24   44 1
    47   24   45 1
    48   24   46 1
@<TRIPOS>MOLECULE
ZINC49645358
   41    42     0     0     0
SMALL
USER_CHARGES

@<TRIPOS>ATOM
      1 C1         -0.0184    1.5028    0.0103 C.3       1 <0>        -0.1065
      2 C2          0.0021   -0.0041    0.0020 C.2       1 <0>         0.0784
      3 C3         -1.1444   -0.6841    0.0042 C.2       1 <0>        -0.1801
      4 S1         -0.5768   -2.3771   -0.0085 S.3       1 <0>         0.1366
      5 C4          1.1786   -2.0459   -0.0160 C.2       1 <0>         0.4774
      6 N1          1.1937   -0.6679   -0.0134 N.pl3     1 <0>        -0.6447
      7 N2          2.1827   -2.8877   -0.0263 N.2       1 <0>        -0.9693
      8 S2          3.7385   -2.3206   -0.0307 S.o2      1 <0>         2.5453
      9 O1          3.8665   -1.6225   -1.2618 O.2       1 <0>        -0.9641
     10 O2          3.8790   -1.6375    1.2074 O.2       1 <0>        -0.9695
     11 C5          4.7768   -3.8080   -0.0450 C.3       1 <0>        -0.6191
     12 C6          6.2515   -3.4005   -0.0500 C.3       1 <0>        -0.1409
     13 C7          7.1273   -4.6550   -0.0621 C.3       1 <0>         0.0393
     14 H1          6.8473   -5.2849   -0.9064 H         1 <0>         0.1464
     15 C8          8.5967   -4.2493   -0.1944 C.3       1 <0>        -0.1443
     16 C9          9.4691   -5.5079   -0.2063 C.3       1 <0>        -0.1388
     17 C10         9.2021   -6.3141    1.0680 C.3       1 <0>        -0.1488
     18 C11         7.7102   -6.6434    1.1535 C.3       1 <0>        -0.0074
     19 N3          6.9326   -5.3989    1.1882 N.4       1 <0>        -0.5081
     20 C12        -2.5569   -0.1590    0.0156 C.3       1 <0>        -0.0643
     21 H2          1.0042    1.8801    0.0026 H         1 <0>         0.0739
     22 H3         -0.5455    1.8639   -0.8728 H         1 <0>         0.0974
     23 H4         -0.5286    1.8543    0.9071 H         1 <0>         0.0972
     24 H5          4.5680   -4.4054    0.8424 H         1 <0>         0.1318
     25 H6          4.5589   -4.3946   -0.9375 H         1 <0>         0.1554
     26 H7          6.4604   -2.8030   -0.9375 H         1 <0>         0.1294
     27 H8          6.4694   -2.8138    0.8424 H         1 <0>         0.1057
     28 H9          8.7400   -3.6983   -1.1239 H         1 <0>         0.1159
     29 H10         8.8779   -3.6195    0.6497 H         1 <0>         0.0926
     30 H11         9.2236   -6.1133   -1.0788 H         1 <0>         0.0839
     31 H12        10.5204   -5.2224   -0.2434 H         1 <0>         0.0976
     32 H13         9.7780   -7.2392    1.0408 H         1 <0>         0.1143
     33 H14         9.4958   -5.7273    1.9383 H         1 <0>         0.0895
     34 H15         7.4176   -7.2304    0.2830 H         1 <0>         0.1320
     35 H16         7.5166   -7.2176    2.0596 H         1 <0>         0.1358
     36 H17         7.2385   -4.8334    1.9659 H         1 <0>         0.4275
     37 H18        -2.9032   -0.0259   -1.0093 H         1 <0>         0.0874
     38 H19        -3.2047   -0.8698    0.5286 H         1 <0>         0.0834
     39 H20        -2.5843    0.7986    0.5356 H         1 <0>         0.0895
     40 H21         5.9540   -5.6184    1.2989 H         1 <0>         0.4270
     41 H22         2.0327   -0.1810   -0.0192 H         1 <0>         0.4153
@<TRIPOS>BOND
     1    1    2 1
     2    1   21 1
     3    1   22 1
     4    1   23 1
     5    2    6 1
     6    2    3 2
     7    3    4 1
     8    3   20 1
     9    4    5 1
    10    5    6 1
    11    5    7 2
    12    6   41 1
    13    7    8 1
    14    8    9 2
    15    8   10 2
    16    8   11 1
    17   11   12 1
    18   11   24 1
    19   11   25 1
    20   12   13 1
    21   12   26 1
    22   12   27 1
    23   13   14 1
    24   13   19 1
    25   13   15 1
    26   15   16 1
    27   15   28 1
    28   15   29 1
    29   16   17 1
    30   16   30 1
    31   16   31 1
    32   17   18 1
    33   17   32 1
    34   17   33 1
    35   18   19 1
    36   18   34 1
    37   18   35 1
    38   19   36 1
    39   19   40 1
    40   20   37 1
    41   20   38 1
    42   20   39 1
@<TRIPOS>MOLECULE
ZINC57804296
   48    50     0     0     0
SMALL
USER_CHARGES

@<TRIPOS>ATOM
      1 C1          0.0539    0.5506    0.1486 C.3       1 <0>        -0.1596
      2 C2         -0.0900   -0.7989   -0.5577 C.3       1 <0>         0.0072
      3 C3          0.6873   -1.8653    0.2166 C.3       1 <0>        -0.1489
      4 C4         -1.5684   -1.1882   -0.6174 C.3       1 <0>        -0.1343
      5 C5          0.4589   -0.6944   -1.9573 C.2       1 <0>         0.2995
      6 N1         -0.2093   -0.9589   -3.0416 N.2       1 <0>        -0.4606
      7 C6          0.5835   -0.7610   -4.1270 C.ar      1 <0>         0.0614
      8 C7          0.3805   -0.8939   -5.5036 C.ar      1 <0>        -0.0592
      9 C8          1.4072   -0.6109   -6.3821 C.ar      1 <0>         0.0591
     10 C9          2.6485   -0.1914   -5.9019 C.ar      1 <0>         0.0883
     11 C10         2.8602   -0.0591   -4.5414 C.ar      1 <0>        -0.1387
     12 C11         1.8353   -0.3409   -3.6490 C.ar      1 <0>         0.0495
     13 N2          1.7242   -0.3039   -2.2716 N.pl3     1 <0>        -0.4872
     14 C12         2.7745    0.0813   -1.3257 C.3       1 <0>         0.0916
     15 C13         3.0477    1.5816   -1.4502 C.3       1 <0>         0.0376
     16 C14         3.4421    1.9102   -2.8915 C.3       1 <0>        -0.1982
     17 C15         1.7863    2.3625   -1.0759 C.3       1 <0>        -0.1933
     18 N3          4.1424    1.9567   -0.5453 N.4       1 <0>        -0.6302
     19 O1          3.6647    0.0975   -6.7616 O.3       1 <0>        -0.3050
     20 C16         3.5393   -0.4011   -8.0976 C.3       1 <0>         0.0202
     21 C17         2.1190   -0.0973   -8.5930 C.3       1 <0>         0.0198
     22 O2          1.1906   -0.7495   -7.7201 O.3       1 <0>        -0.3004
     23 H1          1.1097    0.7594    0.3216 H         1 <0>         0.0516
     24 H2         -0.3740    1.3349   -0.4757 H         1 <0>         0.0713
     25 H3         -0.4713    0.5189    1.1032 H         1 <0>         0.0825
     26 H4          0.2073   -2.0370    1.1800 H         1 <0>         0.0811
     27 H5          0.6980   -2.7936   -0.3546 H         1 <0>         0.0695
     28 H6          1.7105   -1.5250    0.3760 H         1 <0>         0.0503
     29 H7         -2.1222   -0.4285   -1.1691 H         1 <0>         0.0682
     30 H8         -1.6709   -2.1497   -1.1206 H         1 <0>         0.0714
     31 H9         -1.9654   -1.2638    0.3949 H         1 <0>         0.0689
     32 H10        -0.5787   -1.2179   -5.8796 H         1 <0>         0.1493
     33 H11         3.8230    0.2634   -4.1736 H         1 <0>         0.1431
     34 H12         2.4500   -0.1458   -0.3102 H         1 <0>         0.1264
     35 H13         3.6857   -0.4736   -1.5486 H         1 <0>         0.1078
     36 H14         2.5962    1.7199   -3.5521 H         1 <0>         0.1229
     37 H15         3.7273    2.9601   -2.9597 H         1 <0>         0.0894
     38 H16         4.2837    1.2850   -3.1894 H         1 <0>         0.0921
     39 H17         1.7140    2.4375    0.0091 H         1 <0>         0.0898
     40 H18         1.8368    3.3625   -1.5067 H         1 <0>         0.0922
     41 H19         0.9095    1.8438   -1.4635 H         1 <0>         0.1144
     42 H20         4.9742    1.4418   -0.7921 H         1 <0>         0.4362
     43 H21         4.3225    2.9461   -0.6274 H         1 <0>         0.4416
     44 H22         4.2668    0.0908   -8.7432 H         1 <0>         0.1300
     45 H23         3.7088   -1.4778   -8.1054 H         1 <0>         0.0841
     46 H24         1.9461    0.9788   -8.5759 H         1 <0>         0.0818
     47 H25         1.9956   -0.4739   -9.6084 H         1 <0>         0.1304
     48 H26         3.8822    1.7400    0.4052 H         1 <0>         0.4350
@<TRIPOS>BOND
     1    1    2 1
     2    1   23 1
     3    1   24 1
     4    1   25 1
     5    2    3 1
     6    2    4 1
     7    2    5 1
     8    3   26 1
     9    3   27 1
    10    3   28 1
    11    4   29 1
    12    4   30 1
    13    4   31 1
    14    5   13 1
    15    5    6 2
    16    6    7 1
    17    7   12 ar
    18    7    8 ar
    19    8    9 ar
    20    8   32 1
    21    9   22 1
    22    9   10 ar
    23   10   11 ar
    24   10   19 1
    25   11   12 ar
    26   11   33 1
    27   12   13 1
    28   13   14 1
    29   14   15 1
    30   14   34 1
    31   14   35 1
    32   15   16 1
    33   15   17 1
    34   15   18 1
    35   16   36 1
    36   16   37 1
    37   16   38 1
    38   17   39 1
    39   17   40 1
    40   17   41 1
    41   18   42 1
    42   18   43 1
    43   18   48 1
    44   19   20 1
    45   20   21 1
    46   20   44 1
    47   20   45 1
    48   21   22 1
    49   21   46 1
    50   21   47 1
@<TRIPOS>MOLECULE
ZINC63868691
   41    43     0     0     0
SMALL
USER_CHARGES

@<TRIPOS>ATOM
      1 C1          0.0711   -2.7250   -1.1478 C.3       1 <0>        -0.1106
      2 C2         -0.5874   -2.2206    0.1378 C.3       1 <0>        -0.0285
      3 H1         -1.2698   -2.9694    0.5399 H         1 <0>         0.1499
      4 C3         -1.3124   -0.9083   -0.1079 C.2       1 <0>        -0.2142
      5 C4         -0.6725   -0.0344    0.7065 C.2       1 <0>         0.0619
      6 N1          0.3047   -0.6466    1.3777 N.2       1 <0>        -0.1724
      7 N2          0.4312   -1.8529    1.1364 N.2       1 <0>        -0.1154
      8 C5         -1.0167    1.4270    0.8357 C.3       1 <0>        -0.1000
      9 S1         -2.6644   -0.5965   -1.1940 S.3       1 <0>         0.0620
     10 C6         -3.9935   -1.5188   -0.4958 C.ar      1 <0>        -0.1296
     11 C7         -3.8318   -2.1567    0.7263 C.ar      1 <0>        -0.1024
     12 C8         -4.8758   -2.8789    1.2718 C.ar      1 <0>        -0.1003
     13 C9         -6.0836   -2.9690    0.6038 C.ar      1 <0>        -0.0936
     14 C10        -6.2538   -2.3375   -0.6139 C.ar      1 <0>        -0.1137
     15 C11        -5.2136   -1.6054   -1.1669 C.ar      1 <0>         0.1483
     16 N3         -5.3858   -0.9596   -2.3976 N.am      1 <0>        -0.6351
     17 C12        -6.6269   -0.7033   -2.8563 C.2       1 <0>         0.5118
     18 O1         -7.5917   -0.9398   -2.1602 O.2       1 <0>        -0.5016
     19 C13        -6.8160   -0.1228   -4.2341 C.3       1 <0>         0.0364
     20 H2         -6.3894   -0.7877   -4.9852 H         1 <0>         0.1846
     21 C14        -6.1749    1.2429   -4.3193 C.2       1 <0>        -0.1704
     22 C15        -6.9840    2.0669   -4.9370 C.2       1 <0>        -0.1280
     23 C16        -8.2471    1.3345   -5.3267 C.3       1 <0>         0.0163
     24 N4         -8.2564    0.0998   -4.5042 N.4       1 <0>        -0.5016
     25 H3          0.6216   -3.6422   -0.9384 H         1 <0>         0.0850
     26 H4         -0.6968   -2.9249   -1.8952 H         1 <0>         0.0797
     27 H5          0.7576   -1.9675   -1.5259 H         1 <0>         0.0670
     28 H6         -1.6942    1.5676    1.6779 H         1 <0>         0.0919
     29 H7         -0.1055    2.0015    1.0026 H         1 <0>         0.0916
     30 H8         -1.4993    1.7690   -0.0798 H         1 <0>         0.0848
     31 H9         -2.8900   -2.0888    1.2505 H         1 <0>         0.1269
     32 H10        -4.7482   -3.3750    2.2226 H         1 <0>         0.1362
     33 H11        -6.8963   -3.5348    1.0348 H         1 <0>         0.1383
     34 H12        -7.1982   -2.4104   -1.1327 H         1 <0>         0.1582
     35 H13        -4.6118   -0.6968   -2.9199 H         1 <0>         0.4197
     36 H14        -5.2004    1.4998   -3.9310 H         1 <0>         0.1828
     37 H15        -6.7801    3.1085   -5.1370 H         1 <0>         0.1864
     38 H16        -9.1219    1.9448   -5.1024 H         1 <0>         0.1517
     39 H17        -8.2247    1.0805   -6.3864 H         1 <0>         0.1565
     40 H18        -8.6465   -0.6733   -5.0222 H         1 <0>         0.4469
     41 H19        -8.7626    0.2476   -3.6440 H         1 <0>         0.4425
@<TRIPOS>BOND
     1    1    2 1
     2    1   25 1
     3    1   26 1
     4    1   27 1
     5    2    3 1
     6    2    7 1
     7    2    4 1
     8    4    5 2
     9    4    9 1
    10    5    6 1
    11    5    8 1
    12    6    7 2
    13    8   28 1
    14    8   29 1
    15    8   30 1
    16    9   10 1
    17   10   15 ar
    18   10   11 ar
    19   11   12 ar
    20   11   31 1
    21   12   13 ar
    22   12   32 1
    23   13   14 ar
    24   13   33 1
    25   14   15 ar
    26   14   34 1
    27   15   16 1
    28   16   17 am
    29   16   35 1
    30   17   18 2
    31   17   19 1
    32   19   20 1
    33   19   24 1
    34   19   21 1
    35   21   22 2
    36   21   36 1
    37   22   23 1
    38   22   37 1
    39   23   24 1
    40   23   38 1
    41   23   39 1
    42   24   40 1
    43   24   41 1
@<TRIPOS>MOLECULE
ZINC66887608
   41    42     0     0     0
SMALL
USER_CHARGES

@<TRIPOS>ATOM
      1 C1          0.0004    1.5348    0.0017 C.3       1 <0>        -0.1688
      2 C2          0.0092    0.0048    0.0004 C.3       1 <0>         0.1254
      3 H1          0.5145   -0.3548   -0.8959 H         1 <0>         0.1395
      4 C3         -1.4086   -0.5057    0.0168 C.ar      1 <0>        -0.0760
      5 C4         -2.1173   -0.5399    1.2032 C.ar      1 <0>        -0.1391
      6 C5         -3.4178   -1.0081    1.2182 C.ar      1 <0>        -0.0065
      7 C6         -4.0099   -1.4418    0.0467 C.ar      1 <0>        -0.6609
      8 C7         -3.3015   -1.4067   -1.1398 C.ar      1 <0>        -0.0081
      9 C8         -2.0024   -0.9345   -1.1556 C.ar      1 <0>        -0.1147
     10 S1         -5.6672   -2.0397    0.0661 S.o2      1 <0>         2.6918
     11 O1         -5.8037   -2.8946   -1.0608 O.2       1 <0>        -0.9434
     12 O2         -5.9245   -2.4804    1.3923 O.2       1 <0>        -0.9494
     13 N1         -6.6593   -0.7412   -0.2020 N.pl3     1 <0>        -1.1164
     14 C9         -6.6139   -0.0375   -1.4862 C.3       1 <0>         0.0796
     15 N2          0.7167   -0.4805    1.1879 N.pl3     1 <0>        -0.5355
     16 C10         1.7718   -1.2184    1.0561 C.2       1 <0>         0.3702
     17 C11         2.5472   -1.6147    2.2451 C.ar      1 <0>        -0.2037
     18 C12         3.7489   -2.3124    2.0999 C.ar      1 <0>        -0.0173
     19 C13         4.4691   -2.6800    3.2159 C.ar      1 <0>        -0.1277
     20 C14         4.0070   -2.3609    4.4822 C.ar      1 <0>        -0.0233
     21 C15         2.8205   -1.6720    4.6399 C.ar      1 <0>        -0.1436
     22 C16         2.0862   -1.2888    3.5280 C.ar      1 <0>         0.1598
     23 O3          0.9234   -0.6061    3.6814 O.3       1 <0>        -0.4950
     24 H2          1.0259    1.9040   -0.0101 H         1 <0>         0.0839
     25 H3         -0.5260    1.8959   -0.8818 H         1 <0>         0.1052
     26 H4         -0.5050    1.8945    0.8980 H         1 <0>         0.0802
     27 H5         -1.6547   -0.2011    2.1184 H         1 <0>         0.1271
     28 H6         -3.9712   -1.0355    2.1452 H         1 <0>         0.1517
     29 H7         -3.7640   -1.7458   -2.0550 H         1 <0>         0.1546
     30 H8         -1.4503   -0.9036   -2.0833 H         1 <0>         0.1456
     31 H9         -7.2706   -0.4466    0.4911 H         1 <0>         0.4241
     32 H10        -6.8644   -0.7305   -2.2893 H         1 <0>         0.0739
     33 H11        -7.3320    0.7825   -1.4767 H         1 <0>         0.0900
     34 H12        -5.6116    0.3591   -1.6478 H         1 <0>         0.0576
     35 H13         2.0840   -1.5438    0.0747 H         1 <0>         0.2100
     36 H14         4.1127   -2.5635    1.1145 H         1 <0>         0.1568
     37 H15         5.3978   -3.2196    3.1027 H         1 <0>         0.1543
     38 H16         4.5778   -2.6529    5.3513 H         1 <0>         0.1534
     39 H17         2.4667   -1.4271    5.6304 H         1 <0>         0.1545
     40 H18         0.1428   -1.1714    3.7604 H         1 <0>         0.4110
     41 H19         0.3944   -0.2488    2.0730 H         1 <0>         0.4294
@<TRIPOS>BOND
     1    1    2 1
     2    1   24 1
     3    1   25 1
     4    1   26 1
     5    2    3 1
     6    2    4 1
     7    2   15 1
     8    4    9 ar
     9    4    5 ar
    10    5    6 ar
    11    5   27 1
    12    6    7 ar
    13    6   28 1
    14    7    8 ar
    15    7   10 1
    16    8    9 ar
    17    8   29 1
    18    9   30 1
    19   10   11 2
    20   10   12 2
    21   10   13 1
    22   13   14 1
    23   13   31 1
    24   14   32 1
    25   14   33 1
    26   14   34 1
    27   15   16 2
    28   15   41 1
    29   16   17 1
    30   16   35 1
    31   17   22 ar
    32   17   18 ar
    33   18   19 ar
    34   18   36 1
    35   19   20 ar
    36   19   37 1
    37   20   21 ar
    38   20   38 1
    39   21   22 ar
    40   21   39 1
    41   22   23 1
    42   23   40 1
@<TRIPOS>MOLECULE
ZINC36276538
   45    48     0     0     0
SMALL
USER_CHARGES

@<TRIPOS>ATOM
      1 C1         -0.0167    1.3773    0.0096 C.ar      1 <0>        -0.1234
      2 C2          1.1699    2.0872    0.0021 C.ar      1 <0>        -0.0886
      3 C3          2.3799    1.4179   -0.0130 C.ar      1 <0>        -0.1491
      4 C4          2.4064    0.0354   -0.0206 C.ar      1 <0>         0.0920
      5 C5          1.2142   -0.6807   -0.0131 C.ar      1 <0>         0.1285
      6 C6          0.0021   -0.0041    0.0020 C.ar      1 <0>        -0.0977
      7 N1          1.2364   -2.0789   -0.0212 N.pl3     1 <0>        -0.6738
      8 C7          1.2545   -2.8410    1.2366 C.3       1 <0>         0.1479
      9 C8          0.1386   -3.8900    1.1863 C.3       1 <0>         0.0421
     10 N2          0.2851   -4.6981   -0.0316 N.3       1 <0>        -0.5354
     11 C9          0.1268   -3.8761   -1.2388 C.3       1 <0>         0.0335
     12 C10         1.2360   -2.8266   -1.2878 C.3       1 <0>         0.1500
     13 C11        -0.6590   -5.8235   -0.0335 C.3       1 <0>         0.1036
     14 C12        -0.3195   -6.7622   -1.1625 C.2       1 <0>         0.1140
     15 C13        -0.8755   -6.7479   -2.3944 C.2       1 <0>        -0.0297
     16 N3         -0.2926   -7.7556   -3.1127 N.pl3     1 <0>        -0.2800
     17 C14        -0.4658   -8.1949   -4.3959 C.2       1 <0>        -0.0460
     18 C15         0.2574   -9.2388   -4.8693 C.2       1 <0>         0.2307
     19 C16         1.1973   -9.8826   -4.0399 C.2       1 <0>        -0.0725
     20 C17         1.3750   -9.4510   -2.7631 C.2       1 <0>        -0.0773
     21 C18         0.6148   -8.3641   -2.2868 C.cat     1 <0>         0.2605
     22 N4          0.5846   -7.7428   -1.1148 N.pl3     1 <0>        -0.4893
     23 N5          0.0697   -9.6792   -6.1865 N.pl3     1 <0>        -0.8427
     24 F1          3.5885   -0.6186   -0.0358 F         1 <0>        -0.1344
     25 H1         -0.9596    1.9036    0.0259 H         1 <0>         0.1321
     26 H2          1.1516    3.1670    0.0077 H         1 <0>         0.1359
     27 H3          3.3049    1.9754   -0.0192 H         1 <0>         0.1379
     28 H4         -0.9255   -0.5572    0.0082 H         1 <0>         0.1279
     29 H5          2.2184   -3.3369    1.3504 H         1 <0>         0.0623
     30 H6          1.0852   -2.1664    2.0759 H         1 <0>         0.0806
     31 H7          0.2068   -4.5359    2.0617 H         1 <0>         0.0896
     32 H8         -0.8301   -3.3905    1.1770 H         1 <0>         0.0487
     33 H9          0.1865   -4.5119   -2.1222 H         1 <0>         0.0771
     34 H10        -0.8417   -3.3768   -1.2143 H         1 <0>         0.0486
     35 H11         1.0546   -2.1425   -2.1168 H         1 <0>         0.0772
     36 H12         2.1982   -3.3211   -1.4213 H         1 <0>         0.0582
     37 H13        -0.5911   -6.3564    0.9149 H         1 <0>         0.1113
     38 H14        -1.6731   -5.4468   -0.1668 H         1 <0>         0.0865
     39 H15        -1.6379   -6.0684   -2.7457 H         1 <0>         0.2204
     40 H16        -1.1846   -7.7064   -5.0371 H         1 <0>         0.1910
     41 H17         1.7732  -10.7150   -4.4165 H         1 <0>         0.1734
     42 H18         2.0925   -9.9374   -2.1188 H         1 <0>         0.1819
     43 H19        -0.5772   -9.2371   -6.7582 H         1 <0>         0.4159
     44 H20         0.5867  -10.4263   -6.5263 H         1 <0>         0.4198
     45 H21         1.1307   -7.9672   -0.3452 H         1 <0>         0.4608
@<TRIPOS>BOND
     1    1    6 ar
     2    1    2 ar
     3    1   25 1
     4    2    3 ar
     5    2   26 1
     6    3    4 ar
     7    3   27 1
     8    4    5 ar
     9    4   24 1
    10    5    6 ar
    11    5    7 1
    12    6   28 1
    13    7   12 1
    14    7    8 1
    15    8    9 1
    16    8   29 1
    17    8   30 1
    18    9   10 1
    19    9   31 1
    20    9   32 1
    21   10   11 1
    22   10   13 1
    23   11   12 1
    24   11   33 1
    25   11   34 1
    26   12   35 1
    27   12   36 1
    28   13   14 1
    29   13   37 1
    30   13   38 1
    31   14   22 1
    32   14   15 2
    33   15   16 1
    34   15   39 1
    35   16   21 1
    36   16   17 1
    37   17   18 2
    38   17   40 1
    39   18   19 1
    40   18   23 1
    41   19   20 2
    42   19   41 1
    43   20   21 1
    44   20   42 1
    45   21   22 2
    46   22   45 1
    47   23   43 1
    48   23   44 1
@<TRIPOS>MOLECULE
ZINC41142994
   43    45     0     0     0
SMALL
USER_CHARGES

@<TRIPOS>ATOM
      1 C1          0.5485    0.3201    1.3956 C.3       1 <0>         0.0220
      2 O1          0.0499   -0.0973    0.1231 O.3       1 <0>        -0.3078
      3 C2         -1.1626   -0.7118    0.1067 C.ar      1 <0>         0.1514
      4 C3         -1.8592   -0.9029    1.2913 C.ar      1 <0>        -0.1962
      5 C4         -3.0907   -1.5269    1.2753 C.ar      1 <0>        -0.0562
      6 C5         -3.6321   -1.9632    0.0733 C.ar      1 <0>         0.0792
      7 C6         -2.9344   -1.7716   -1.1119 C.ar      1 <0>        -0.0622
      8 C7         -1.7056   -1.1424   -1.0953 C.ar      1 <0>        -0.1322
      9 N1         -4.8823   -2.5973    0.0565 N.pl3     1 <0>        -0.2825
     10 C8         -5.2133   -3.7064   -0.6679 C.2       1 <0>         0.1672
     11 C9         -6.5221   -3.9933   -0.3962 C.2       1 <0>        -0.2244
     12 C10        -6.9900   -3.0402    0.5087 C.2       1 <0>        -0.0097
     13 N2         -6.0149   -2.2106    0.7844 N.2       1 <0>        -0.2555
     14 C11        -8.3839   -2.9786    1.0780 C.3       1 <0>         0.0958
     15 N3         -8.4131   -3.6644    2.3768 N.4       1 <0>        -0.6349
     16 C12        -4.3218   -4.4577   -1.5774 C.ar      1 <0>        -0.1002
     17 C13        -3.0485   -4.8388   -1.1541 C.ar      1 <0>        -0.0511
     18 C14        -2.2210   -5.5396   -2.0071 C.ar      1 <0>        -0.1518
     19 C15        -2.6491   -5.8660   -3.2822 C.ar      1 <0>        -0.0520
     20 C16        -3.9084   -5.4932   -3.7127 C.ar      1 <0>        -0.2071
     21 C17        -4.7535   -4.7950   -2.8655 C.ar      1 <0>         0.1621
     22 O2         -5.9937   -4.4335   -3.2855 O.3       1 <0>        -0.3107
     23 C18        -6.3654   -4.8123   -4.6124 C.3       1 <0>         0.0221
     24 H1          1.5213    0.7946    1.2667 H         1 <0>         0.1090
     25 H2         -0.1463    1.0312    1.8426 H         1 <0>         0.0606
     26 H3          0.6508   -0.5471    2.0480 H         1 <0>         0.0606
     27 H4         -1.4379   -0.5639    2.2261 H         1 <0>         0.1433
     28 H5         -3.6327   -1.6759    2.1975 H         1 <0>         0.1340
     29 H6         -3.3550   -2.1107   -2.0471 H         1 <0>         0.1367
     30 H7         -1.1649   -0.9894   -2.0176 H         1 <0>         0.1474
     31 H8         -7.0926   -4.8120   -0.8092 H         1 <0>         0.1625
     32 H9         -8.6765   -1.9370    1.2105 H         1 <0>         0.1468
     33 H10        -9.0778   -3.4667    0.3937 H         1 <0>         0.1535
     34 H11        -9.3464   -3.6231    2.7580 H         1 <0>         0.4410
     35 H12        -8.1423   -4.6286    2.2541 H         1 <0>         0.4370
     36 H13        -2.7107   -4.5853   -0.1601 H         1 <0>         0.1280
     37 H14        -1.2353   -5.8343   -1.6786 H         1 <0>         0.1344
     38 H15        -1.9955   -6.4144   -3.9443 H         1 <0>         0.1355
     39 H16        -4.2359   -5.7505   -4.7092 H         1 <0>         0.1390
     40 H17        -5.6727   -4.3650   -5.3254 H         1 <0>         0.0611
     41 H18        -6.3301   -5.8979   -4.7036 H         1 <0>         0.0617
     42 H19        -7.3767   -4.4628   -4.8201 H         1 <0>         0.1057
     43 H20        -7.7708   -3.2126    3.0103 H         1 <0>         0.4370
@<TRIPOS>BOND
     1    1    2 1
     2    1   24 1
     3    1   25 1
     4    1   26 1
     5    2    3 1
     6    3    8 ar
     7    3    4 ar
     8    4    5 ar
     9    4   27 1
    10    5    6 ar
    11    5   28 1
    12    6    7 ar
    13    6    9 1
    14    7    8 ar
    15    7   29 1
    16    8   30 1
    17    9   13 1
    18    9   10 1
    19   10   11 2
    20   10   16 1
    21   11   12 1
    22   11   31 1
    23   12   13 2
    24   12   14 1
    25   14   15 1
    26   14   32 1
    27   14   33 1
    28   15   34 1
    29   15   35 1
    30   15   43 1
    31   16   21 ar
    32   16   17 ar
    33   17   18 ar
    34   17   36 1
    35   18   19 ar
    36   18   37 1
    37   19   20 ar
    38   19   38 1
    39   20   21 ar
    40   20   39 1
    41   21   22 1
    42   22   23 1
    43   23   40 1
    44   23   41 1
    45   23   42 1
@<TRIPOS>MOLECULE
ZINC50635575
   41    42     0     0     0
SMALL
USER_CHARGES

@<TRIPOS>ATOM
      1 C1         -3.2210    1.5396    4.3632 C.3       1 <0>        -0.1742
      2 C2         -2.6968    0.3541    3.5503 C.3       1 <0>         0.0992
      3 N1         -3.7566   -0.6473    3.4081 N.pl3     1 <0>        -0.6856
      4 C3         -3.5140   -1.8207    2.7036 C.ar      1 <0>         0.4696
      5 C4         -2.2606   -2.0404    2.1408 C.ar      1 <0>        -0.2055
      6 C5         -2.0330   -3.2123    1.4425 C.ar      1 <0>         0.1175
      7 C6         -3.0703   -4.1289    1.3298 C.ar      1 <0>        -0.7408
      8 C7         -4.2887   -3.8461    1.9133 C.ar      1 <0>         0.2693
      9 N2         -4.4759   -2.7218    2.5786 N.ar      1 <0>        -0.5112
     10 S1         -2.8335   -5.6372    0.4503 S.o2      1 <0>         2.6948
     11 O1         -4.1007   -6.0018   -0.0792 O.2       1 <0>        -0.9311
     12 O2         -1.6890   -5.4528   -0.3714 O.2       1 <0>        -0.9161
     13 N3         -2.4347   -6.7960    1.5641 N.pl3     1 <0>        -1.0508
     14 C8         -1.2605   -6.6726    2.3103 C.ar      1 <0>         0.0991
     15 C9         -0.0296   -6.9290    1.7190 C.ar      1 <0>        -0.0994
     16 C10         1.1293   -6.8057    2.4595 C.ar      1 <0>        -0.1040
     17 C11         1.0658   -6.4279    3.7884 C.ar      1 <0>        -0.0642
     18 C12        -0.1574   -6.1724    4.3801 C.ar      1 <0>        -0.0813
     19 C13        -1.3202   -6.2878    3.6435 C.ar      1 <0>        -0.1138
     20 C14        -0.2218   -5.7619    5.8287 C.3       1 <0>        -0.1217
     21 C15         2.3328   -6.2948    4.5935 C.3       1 <0>        -0.1280
     22 H1         -2.4325    2.2847    4.4690 H         1 <0>         0.0973
     23 H2         -4.0738    1.9835    3.8496 H         1 <0>         0.0724
     24 H3         -3.5302    1.1951    5.3500 H         1 <0>         0.0721
     25 H4         -2.3876    0.6986    2.5635 H         1 <0>         0.0948
     26 H5         -1.8440   -0.0898    4.0639 H         1 <0>         0.0945
     27 H6         -4.6276   -0.4915    3.8055 H         1 <0>         0.4228
     28 H7         -1.4762   -1.3057    2.2475 H         1 <0>         0.1880
     29 H8         -1.0704   -3.4100    0.9946 H         1 <0>         0.1887
     30 H9         -5.0982   -4.5559    1.8278 H         1 <0>         0.2227
     31 H10         0.0206   -7.2248    0.6816 H         1 <0>         0.1401
     32 H11         2.0864   -7.0049    2.0005 H         1 <0>         0.1365
     33 H12        -2.2750   -6.0835    4.1050 H         1 <0>         0.1236
     34 H13        -0.1648   -4.6758    5.9015 H         1 <0>         0.0707
     35 H14        -1.1604   -6.1064    6.2626 H         1 <0>         0.0671
     36 H15         0.6135   -6.2066    6.3698 H         1 <0>         0.0788
     37 H16         2.7107   -5.2758    4.5105 H         1 <0>         0.0774
     38 H17         2.1242   -6.5209    5.6392 H         1 <0>         0.0755
     39 H18         3.0798   -6.9915    4.2132 H         1 <0>         0.0741
     40 H19        -5.3408   -2.5495    2.9825 H         1 <0>         0.4483
     41 H20        -3.0166   -7.5604    1.6983 H         1 <0>         0.4326
@<TRIPOS>BOND
     1    1    2 1
     2    1   22 1
     3    1   23 1
     4    1   24 1
     5    2    3 1
     6    2   25 1
     7    2   26 1
     8    3    4 1
     9    3   27 1
    10    4    9 ar
    11    4    5 ar
    12    5    6 ar
    13    5   28 1
    14    6    7 ar
    15    6   29 1
    16    7    8 ar
    17    7   10 1
    18    8    9 ar
    19    8   30 1
    20    9   40 1
    21   10   11 2
    22   10   12 2
    23   10   13 1
    24   13   14 1
    25   13   41 1
    26   14   19 ar
    27   14   15 ar
    28   15   16 ar
    29   15   31 1
    30   16   17 ar
    31   16   32 1
    32   17   18 ar
    33   17   21 1
    34   18   19 ar
    35   18   20 1
    36   19   33 1
    37   20   34 1
    38   20   35 1
    39   20   36 1
    40   21   37 1
    41   21   38 1
    42   21   39 1
@<TRIPOS>MOLECULE
ZINC62238095
   34    36     0     0     0
SMALL
USER_CHARGES

@<TRIPOS>ATOM
      1 C1         -0.0167    1.3767    0.0096 C.ar      1 <0>        -0.0949
      2 C2          1.1707    2.0859    0.0021 C.ar      1 <0>        -0.0439
      3 C3          2.3797    1.4153   -0.0135 C.ar      1 <0>        -0.1617
      4 C4          2.4050    0.0342   -0.0217 C.ar      1 <0>        -0.0391
      5 C5          1.2148   -0.6805   -0.0137 C.ar      1 <0>         0.1021
      6 C6          0.0021   -0.0041    0.0020 C.ar      1 <0>        -0.0754
      7 N1          1.2372   -2.0815   -0.0224 N.pl3     1 <0>        -0.2883
      8 C7          0.3551   -2.9239    0.6064 C.2       1 <0>         0.1810
      9 C8          0.7668   -4.1952    0.3203 C.2       1 <0>        -0.1045
     10 N2          1.8509   -4.1322   -0.4480 N.2       1 <0>        -0.1982
     11 N3          2.1623   -2.9056   -0.6807 N.2       1 <0>        -0.0093
     12 C9          0.1022   -5.4608    0.7975 C.3       1 <0>         0.0979
     13 N4         -0.9149   -5.8773   -0.1773 N.4       1 <0>        -0.6358
     14 C10        -0.8046   -2.5351    1.4268 C.2       1 <0>        -0.0288
     15 C11        -0.8185   -1.5655    2.3830 C.2       1 <0>        -0.1190
     16 C12        -2.1250   -1.5330    2.9085 C.2       1 <0>        -0.2039
     17 C13        -2.8372   -2.4727    2.2558 C.2       1 <0>         0.0092
     18 O1         -2.0381   -3.0727    1.3581 O.3       1 <0>        -0.1792
     19 C14         3.6712    2.1919   -0.0222 C.3       1 <0>         0.5106
     20 F1          3.3912    3.5625   -0.0120 F         1 <0>        -0.1680
     21 F2          4.4220    1.8609    1.1109 F         1 <0>        -0.1700
     22 F3          4.3993    1.8732   -1.1735 F         1 <0>        -0.1683
     23 H1         -0.9594    1.9033    0.0260 H         1 <0>         0.1576
     24 H2          1.1535    3.1657    0.0081 H         1 <0>         0.1585
     25 H3          3.3497   -0.4891   -0.0346 H         1 <0>         0.1532
     26 H4         -0.9254   -0.5573    0.0083 H         1 <0>         0.1415
     27 H5          0.8499   -6.2472    0.9009 H         1 <0>         0.1590
     28 H6         -0.3716   -5.2808    1.7625 H         1 <0>         0.1492
     29 H7         -1.6070   -5.1493   -0.2730 H         1 <0>         0.4336
     30 H8         -0.4763   -6.0439   -1.0706 H         1 <0>         0.4396
     31 H9          0.0118   -0.9425    2.6812 H         1 <0>         0.1591
     32 H10        -2.4875   -0.8787    3.6875 H         1 <0>         0.1682
     33 H11        -3.8790   -2.7026    2.4239 H         1 <0>         0.2243
     34 H12        -1.3599   -6.7246    0.1422 H         1 <0>         0.4435
@<TRIPOS>BOND
     1    1    6 ar
     2    1    2 ar
     3    1   23 1
     4    2    3 ar
     5    2   24 1
     6    3    4 ar
     7    3   19 1
     8    4    5 ar
     9    4   25 1
    10    5    6 ar
    11    5    7 1
    12    6   26 1
    13    7   11 1
    14    7    8 1
    15    8    9 2
    16    8   14 1
    17    9   10 1
    18    9   12 1
    19   10   11 2
    20   12   13 1
    21   12   27 1
    22   12   28 1
    23   13   29 1
    24   13   30 1
    25   13   34 1
    26   14   18 1
    27   14   15 2
    28   15   16 1
    29   15   31 1
    30   16   17 2
    31   16   32 1
    32   17   18 1
    33   17   33 1
    34   19   20 1
    35   19   21 1
    36   19   22 1
@<TRIPOS>MOLECULE
ZINC67190172
   43    45     0     0     0
SMALL
USER_CHARGES

@<TRIPOS>ATOM
      1 C1         -1.5293    1.3236   -0.0548 C.3       1 <0>        -0.1221
      2 C2         -0.9268   -0.0573   -0.0192 C.ar      1 <0>        -0.0601
      3 C3         -0.4128   -0.6167   -1.1750 C.ar      1 <0>        -0.1189
      4 C4          0.1408   -1.8833   -1.1466 C.ar      1 <0>        -0.0960
      5 C5          0.1821   -2.5943    0.0369 C.ar      1 <0>        -0.1355
      6 C6         -0.3328   -2.0354    1.1992 C.ar      1 <0>         0.1248
      7 C7         -0.8835   -0.7604    1.1684 C.ar      1 <0>        -0.1143
      8 C8         -1.4383   -0.1477    2.4285 C.3       1 <0>        -0.1148
      9 N1         -0.2930   -2.7527    2.3990 N.am      1 <0>        -0.6662
     10 C9         -0.1560   -4.0933    2.3784 C.2       1 <0>         0.5709
     11 O1         -0.0072   -4.6733    1.3195 O.2       1 <0>        -0.4701
     12 C10        -0.1866   -4.8554    3.6368 C.2       1 <0>        -0.2800
     13 C11        -0.1564   -6.2420    3.6442 C.2       1 <0>         0.1739
     14 C12        -0.1896   -6.9100    4.9480 C.ar      1 <0>        -0.1343
     15 C13         0.1030   -8.2751    5.0608 C.ar      1 <0>        -0.0601
     16 C14         0.0723   -8.8779    6.2867 C.ar      1 <0>        -0.0714
     17 C15        -0.2476   -8.1502    7.4234 C.ar      1 <0>        -0.1275
     18 C16        -0.5426   -6.8004    7.3357 C.ar      1 <0>         0.1445
     19 C17        -0.5183   -6.1680    6.0960 C.ar      1 <0>         0.0824
     20 O2         -0.8115   -4.8486    5.9876 O.3       1 <0>        -0.1963
     21 C18        -0.2446   -4.1757    4.9504 C.2       1 <0>         0.5450
     22 N2          0.2292   -2.9687    5.1056 N.pl3     1 <0>        -0.6899
     23 O3         -0.8546   -6.0955    8.4559 O.3       1 <0>        -0.3023
     24 C19        -0.8594   -6.8115    9.6926 C.3       1 <0>         0.0172
     25 H1         -0.7539    2.0635    0.1439 H         1 <0>         0.0769
     26 H2         -1.9619    1.5060   -1.0385 H         1 <0>         0.0743
     27 H3         -2.3077    1.4001    0.7043 H         1 <0>         0.0705
     28 H4         -0.4441   -0.0630   -2.1017 H         1 <0>         0.1306
     29 H5          0.5411   -2.3175   -2.0509 H         1 <0>         0.1334
     30 H6          0.6140   -3.5840    0.0582 H         1 <0>         0.1612
     31 H7         -2.4926   -0.4069    2.5249 H         1 <0>         0.0772
     32 H8         -0.8901   -0.5292    3.2899 H         1 <0>         0.0439
     33 H9         -1.3334    0.9363    2.3820 H         1 <0>         0.0845
     34 H10        -0.3639   -2.2853    3.2460 H         1 <0>         0.3918
     35 H11        -0.1106   -6.8072    2.7251 H         1 <0>         0.2031
     36 H12         0.3518   -8.8500    4.1810 H         1 <0>         0.1649
     37 H13         0.2990   -9.9305    6.3713 H         1 <0>         0.1612
     38 H14        -0.2664   -8.6408    8.3853 H         1 <0>         0.1651
     39 H15         0.7288   -2.5479    4.3885 H         1 <0>         0.4553
     40 H16        -1.1235   -6.1333   10.5040 H         1 <0>         0.1180
     41 H17        -1.5896   -7.6192    9.6420 H         1 <0>         0.0701
     42 H18         0.1312   -7.2280    9.8752 H         1 <0>         0.0692
     43 H19         0.0816   -2.4930    5.9379 H         1 <0>         0.4498
@<TRIPOS>BOND
     1    1    2 1
     2    1   25 1
     3    1   26 1
     4    1   27 1
     5    2    7 ar
     6    2    3 ar
     7    3    4 ar
     8    3   28 1
     9    4    5 ar
    10    4   29 1
    11    5    6 ar
    12    5   30 1
    13    6    7 ar
    14    6    9 1
    15    7    8 1
    16    8   31 1
    17    8   32 1
    18    8   33 1
    19    9   10 am
    20    9   34 1
    21   10   11 2
    22   10   12 1
    23   12   21 1
    24   12   13 2
    25   13   14 1
    26   13   35 1
    27   14   19 ar
    28   14   15 ar
    29   15   16 ar
    30   15   36 1
    31   16   17 ar
    32   16   37 1
    33   17   18 ar
    34   17   38 1
    35   18   19 ar
    36   18   23 1
    37   19   20 1
    38   20   21 1
    39   21   22 2
    40   22   39 1
    41   22   43 1
    42   23   24 1
    43   24   40 1
    44   24   41 1
    45   24   42 1
@<TRIPOS>MOLECULE
ZINC37117857
   44    46     0     0     0
SMALL
USER_CHARGES

@<TRIPOS>ATOM
      1 C1         -0.0187    1.5258    0.0104 C.3       1 <0>        -0.1622
      2 C2          0.0021   -0.0041    0.0020 C.3       1 <0>        -0.0860
      3 H1         -1.0205   -0.3814    0.0098 H         1 <0>         0.0921
      4 C3          0.7182   -0.4975   -1.2568 C.3       1 <0>        -0.1268
      5 C4          2.1536    0.0321   -1.2676 C.3       1 <0>        -0.1199
      6 C5          2.8936   -0.4747   -0.0281 C.3       1 <0>        -0.1393
      7 C6          2.1775    0.0187    1.2307 C.3       1 <0>         0.0162
      8 H2          2.1627    1.1086    1.2367 H         1 <0>         0.1448
      9 C7          0.7421   -0.5109    1.2415 C.3       1 <0>        -0.1356
     10 N1          2.8879   -0.4680    2.4208 N.4       1 <0>        -0.5059
     11 C8          4.2262    0.1357    2.4731 C.3       1 <0>         0.0820
     12 H3          4.7524   -0.0658    1.5401 H         1 <0>         0.1473
     13 C9          4.0963    1.6475    2.6692 C.3       1 <0>        -0.1787
     14 C10         4.9993   -0.4555    3.6237 C.ar      1 <0>        -0.1366
     15 C11         4.3614   -0.7052    4.8268 C.ar      1 <0>        -0.1128
     16 C12         5.0614   -1.2468    5.8869 C.ar      1 <0>        -0.0890
     17 C13         6.4089   -1.5417    5.7456 C.ar      1 <0>         0.1183
     18 C14         7.0523   -1.2898    4.5323 C.ar      1 <0>         0.1040
     19 C15         6.3397   -0.7511    3.4717 C.ar      1 <0>        -0.0735
     20 N2          8.3790   -1.6830    4.6909 N.am      1 <0>        -0.6395
     21 H4          9.0722   -1.6277    4.0146 H         1 <0>         0.4426
     22 C16         8.5355   -2.1524    5.9430 C.2       1 <0>         0.6850
     23 O1          9.5772   -2.5771    6.4072 O.2       1 <0>        -0.5279
     24 N3          7.3647   -2.0801    6.6039 N.am      1 <0>        -0.6392
     25 H5          7.2128   -2.3559    7.5213 H         1 <0>         0.4436
     26 H6          1.0039    1.9031    0.0027 H         1 <0>         0.0566
     27 H7         -0.5459    1.8868   -0.8726 H         1 <0>         0.0691
     28 H8         -0.5289    1.8773    0.9072 H         1 <0>         0.0614
     29 H9          0.7330   -1.5874   -1.2628 H         1 <0>         0.0709
     30 H10         0.1910   -0.1364   -2.1398 H         1 <0>         0.0795
     31 H11         2.6638   -0.3194   -2.1644 H         1 <0>         0.0844
     32 H12         2.1388    1.1220   -1.2617 H         1 <0>         0.0775
     33 H13         2.9084   -1.5646   -0.0341 H         1 <0>         0.0880
     34 H14         3.9162   -0.0975   -0.0359 H         1 <0>         0.0863
     35 H15         0.2319   -0.1594    2.1383 H         1 <0>         0.0878
     36 H16         0.7568   -1.6008    1.2356 H         1 <0>         0.0880
     37 H17         2.3711   -0.2126    3.2489 H         1 <0>         0.4241
     38 H18         3.5372    2.0752    1.8370 H         1 <0>         0.0836
     39 H19         3.5701    1.8491    3.6022 H         1 <0>         0.0847
     40 H20         5.0893    2.0955    2.7080 H         1 <0>         0.1081
     41 H21         3.3119   -0.4752    4.9368 H         1 <0>         0.1304
     42 H22         4.5605   -1.4399    6.8241 H         1 <0>         0.1456
     43 H23         6.8329   -0.5590    2.5303 H         1 <0>         0.1433
     44 H24         2.9736   -1.4722    2.3742 H         1 <0>         0.4279
@<TRIPOS>BOND
     1    1    2 1
     2    1   26 1
     3    1   27 1
     4    1   28 1
     5    2    3 1
     6    2    9 1
     7    2    4 1
     8    4    5 1
     9    4   29 1
    10    4   30 1
    11    5    6 1
    12    5   31 1
    13    5   32 1
    14    6    7 1
    15    6   33 1
    16    6   34 1
    17    7    8 1
    18    7    9 1
    19    7   10 1
    20    9   35 1
    21    9   36 1
    22   10   11 1
    23   10   37 1
    24   10   44 1
    25   11   12 1
    26   11   13 1
    27   11   14 1
    28   13   38 1
    29   13   39 1
    30   13   40 1
    31   14   19 ar
    32   14   15 ar
    33   15   16 ar
    34   15   41 1
    35   16   17 ar
    36   16   42 1
    37   17   24 1
    38   17   18 ar
    39   18   19 ar
    40   18   20 1
    41   19   43 1
    42   20   21 1
    43   20   22 am
    44   22   23 2
    45   22   24 am
    46   24   25 1
@<TRIPOS>MOLECULE
ZINC40922568
   44    44     0     0     0
SMALL
USER_CHARGES

@<TRIPOS>ATOM
      1 C1          0.1883    1.4801   -0.0974 C.3       1 <0>        -0.1597
      2 C2         -0.0276   -0.0297    0.0243 C.3       1 <0>         0.1974
      3 H1          0.4448   -0.5334   -0.8190 H         1 <0>         0.1113
      4 C3         -1.5049   -0.3274    0.0238 C.ar      1 <0>        -0.1404
      5 C4         -2.1836   -0.4617    1.2198 C.ar      1 <0>        -0.0896
      6 C5         -3.5386   -0.7354    1.2200 C.ar      1 <0>        -0.1508
      7 C6         -4.2185   -0.8749    0.0239 C.ar      1 <0>        -0.0690
      8 C7         -3.5447   -0.7412   -1.1744 C.ar      1 <0>        -0.1989
      9 C8         -2.1857   -0.4613   -1.1773 C.ar      1 <0>         0.1520
     10 O1         -1.5216   -0.3237   -2.3551 O.3       1 <0>        -0.3074
     11 C9         -2.2563   -0.5969   -3.5499 C.3       1 <0>         0.0775
     12 C10        -3.0267    0.6557   -3.9726 C.3       1 <0>        -0.1835
     13 C11        -1.2875   -0.9998   -4.6634 C.3       1 <0>        -0.1512
     14 N1          0.5667   -0.5088    1.2746 N.am      1 <0>        -0.7230
     15 C12         1.8765   -0.8229    1.3212 C.2       1 <0>         0.5002
     16 O2          2.5632   -0.7088    0.3280 O.2       1 <0>        -0.4696
     17 C13         2.4879   -1.3158    2.6074 C.3       1 <0>         0.0464
     18 C14         3.7237   -2.1615    2.2935 C.3       1 <0>        -0.1671
     19 C15         2.8944   -0.1194    3.4702 C.3       1 <0>        -0.1759
     20 N2          1.5071   -2.1329    3.3342 N.4       1 <0>        -0.6339
     21 H2          1.2568    1.6955   -0.0970 H         1 <0>         0.0660
     22 H3         -0.2539    1.8366   -1.0277 H         1 <0>         0.0803
     23 H4         -0.2841    1.9838    0.7460 H         1 <0>         0.0611
     24 H5         -1.6549   -0.3532    2.1553 H         1 <0>         0.1152
     25 H6         -4.0672   -0.8407    2.1560 H         1 <0>         0.1290
     26 H7         -5.2770   -1.0891    0.0267 H         1 <0>         0.1320
     27 H8         -4.0761   -0.8503   -2.1083 H         1 <0>         0.1377
     28 H9         -2.9581   -1.4105   -3.3668 H         1 <0>         0.0758
     29 H10        -2.3248    1.4693   -4.1556 H         1 <0>         0.0707
     30 H11        -3.5871    0.4473   -4.8839 H         1 <0>         0.0779
     31 H12        -3.7168    0.9427   -3.1793 H         1 <0>         0.0627
     32 H13        -0.7387   -1.8921   -4.3623 H         1 <0>         0.0649
     33 H14        -1.8480   -1.2082   -5.5748 H         1 <0>         0.0825
     34 H15        -0.5857   -0.1862   -4.8465 H         1 <0>         0.0699
     35 H16         0.0175   -0.6001    2.0690 H         1 <0>         0.3889
     36 H17         4.4514   -1.5552    1.7542 H         1 <0>         0.1191
     37 H18         4.1659   -2.5180    3.2238 H         1 <0>         0.0953
     38 H19         3.4341   -3.0138    1.6788 H         1 <0>         0.0879
     39 H20         2.0140    0.4831    3.6939 H         1 <0>         0.0874
     40 H21         3.3366   -0.4760    4.4005 H         1 <0>         0.1007
     41 H22         3.6222    0.4869    2.9309 H         1 <0>         0.1162
     42 H23         1.2390   -2.9219    2.7652 H         1 <0>         0.4406
     43 H24         1.9164   -2.4629    4.1954 H         1 <0>         0.4440
     44 H25         0.6921   -1.5752    3.5413 H         1 <0>         0.4295
@<TRIPOS>BOND
     1    1    2 1
     2    1   21 1
     3    1   22 1
     4    1   23 1
     5    2    3 1
     6    2    4 1
     7    2   14 1
     8    4    9 ar
     9    4    5 ar
    10    5    6 ar
    11    5   24 1
    12    6    7 ar
    13    6   25 1
    14    7    8 ar
    15    7   26 1
    16    8    9 ar
    17    8   27 1
    18    9   10 1
    19   10   11 1
    20   11   12 1
    21   11   13 1
    22   11   28 1
    23   12   29 1
    24   12   30 1
    25   12   31 1
    26   13   32 1
    27   13   33 1
    28   13   34 1
    29   14   15 am
    30   14   35 1
    31   15   16 2
    32   15   17 1
    33   17   18 1
    34   17   19 1
    35   17   20 1
    36   18   36 1
    37   18   37 1
    38   18   38 1
    39   19   39 1
    40   19   40 1
    41   19   41 1
    42   20   42 1
    43   20   43 1
    44   20   44 1
@<TRIPOS>MOLECULE
ZINC51332771
   36    38     0     0     0
SMALL
USER_CHARGES

@<TRIPOS>ATOM
      1 C1         -0.0168    1.3881    0.0097 C.ar      1 <0>        -0.1907
      2 C2          1.1585    2.0858    0.0022 C.ar      1 <0>         0.0577
      3 C3          2.3616    1.3594   -0.0132 C.ar      1 <0>        -0.1131
      4 C4          3.6114    2.0128   -0.0210 C.ar      1 <0>         0.2349
      5 C5          4.7700    1.2671   -0.0357 C.ar      1 <0>        -0.1426
      6 C6          4.7205   -0.1238   -0.0433 C.ar      1 <0>        -0.0705
      7 C7          3.5151   -0.7892   -0.0359 C.ar      1 <0>         0.1508
      8 C8          2.3095   -0.0561   -0.0203 C.ar      1 <0>         0.1030
      9 N1          1.1268   -0.6781   -0.0118 N.ar      1 <0>        -0.4573
     10 C9          0.0021   -0.0041    0.0020 C.ar      1 <0>         0.2132
     11 N2          3.4857   -2.1879   -0.0442 N.pl3     1 <0>        -0.7428
     12 C10         4.7387   -2.9468   -0.0608 C.3       1 <0>         0.1635
     13 C11         4.4323   -4.4223   -0.0670 C.ar      1 <0>        -0.0973
     14 C12         4.2981   -5.1028    1.1303 C.ar      1 <0>        -0.0981
     15 C13         4.0177   -6.4534    1.1320 C.ar      1 <0>        -0.0716
     16 C14         3.8688   -7.1338   -0.0782 C.ar      1 <0>        -0.0032
     17 C15         4.0051   -6.4408   -1.2828 C.ar      1 <0>        -0.0715
     18 C16         4.2809   -5.0892   -1.2698 C.ar      1 <0>        -0.0981
     19 C17         3.5781   -8.5359   -0.0841 C.1       1 <0>         0.2360
     20 N3          3.3475   -9.6483   -0.0887 N.1       1 <0>        -0.3903
     21 N4          3.6743    3.4079   -0.0144 N.pl3     1 <0>        -0.8512
     22 H1         -0.9589    1.9159    0.0260 H         1 <0>         0.1831
     23 H2          1.1626    3.1658    0.0076 H         1 <0>         0.1665
     24 H3          5.7271    1.7675   -0.0417 H         1 <0>         0.1511
     25 H4          5.6406   -0.6892   -0.0556 H         1 <0>         0.1536
     26 H5         -0.9339   -0.5428    0.0081 H         1 <0>         0.2084
     27 H6          2.6357   -2.6552   -0.0390 H         1 <0>         0.3942
     28 H7          5.3072   -2.6901   -0.9547 H         1 <0>         0.0838
     29 H8          5.3242   -2.7010    0.8251 H         1 <0>         0.0838
     30 H9          4.4135   -4.5753    2.0656 H         1 <0>         0.1369
     31 H10         3.9139   -6.9835    2.0672 H         1 <0>         0.1396
     32 H11         3.8912   -6.9609   -2.2224 H         1 <0>         0.1397
     33 H12         4.3825   -4.5511   -2.2007 H         1 <0>         0.1370
     34 H13         2.8571    3.9303   -0.0044 H         1 <0>         0.4049
     35 H14         4.5354    3.8546   -0.0199 H         1 <0>         0.4178
     36 H15         1.0998   -1.6477   -0.0171 H         1 <0>         0.4391
@<TRIPOS>BOND
     1    1   10 ar
     2    1    2 ar
     3    1   22 1
     4    2    3 ar
     5    2   23 1
     6    3    8 ar
     7    3    4 ar
     8    4    5 ar
     9    4   21 1
    10    5    6 ar
    11    5   24 1
    12    6    7 ar
    13    6   25 1
    14    7    8 ar
    15    7   11 1
    16    8    9 ar
    17    9   10 ar
    18    9   36 1
    19   10   26 1
    20   11   12 1
    21   11   27 1
    22   12   13 1
    23   12   28 1
    24   12   29 1
    25   13   18 ar
    26   13   14 ar
    27   14   15 ar
    28   14   30 1
    29   15   16 ar
    30   15   31 1
    31   16   17 ar
    32   16   19 1
    33   17   18 ar
    34   17   32 1
    35   18   33 1
    36   19   20 3
    37   21   34 1
    38   21   35 1
@<TRIPOS>MOLECULE
ZINC61812900
   33    34     0     0     0
SMALL
USER_CHARGES

@<TRIPOS>ATOM
      1 C1          0.0464    1.9281   -0.4236 C.3       1 <0>        -0.1470
      2 C2          0.0720    0.4201   -0.1665 C.3       1 <0>        -0.0550
      3 C3          0.7428   -0.2754   -1.3229 C.2       1 <0>         0.0888
      4 C4          0.0364   -0.7047   -2.3965 C.2       1 <0>        -0.1739
      5 S1          1.3380   -1.4193   -3.3879 S.3       1 <0>         0.1199
      6 C5          2.6233   -1.1017   -2.3488 C.2       1 <0>         0.2263
      7 N1          2.0463   -0.4885   -1.3373 N.2       1 <0>        -0.5122
      8 N2          3.9657   -1.4072   -2.5196 N.pl3     1 <0>        -0.5806
      9 C6          4.4087   -1.9505   -3.7233 C.ar      1 <0>         0.3050
     10 C7          3.8152   -1.5882   -4.9324 C.ar      1 <0>        -0.1811
     11 C8          4.2799   -2.1469   -6.1078 C.ar      1 <0>         0.1925
     12 N3          5.2713   -3.0136   -6.1014 N.ar      1 <0>        -0.4732
     13 C9          5.8669   -3.3883   -4.9739 C.ar      1 <0>         0.1788
     14 C10         5.4599   -2.8654   -3.7501 C.ar      1 <0>        -0.0984
     15 C11         6.9759   -4.3655   -5.0208 C.2       1 <0>         0.3102
     16 S2          8.2825   -4.2308   -3.9227 S.2       1 <0>        -0.3643
     17 N4          6.9581   -5.3620   -5.9280 N.pl3     1 <0>        -0.7471
     18 C12        -1.4412   -0.6069   -2.6763 C.3       1 <0>        -0.0711
     19 H1          1.0671    2.2965   -0.5265 H         1 <0>         0.0571
     20 H2         -0.5073    2.1311   -1.3403 H         1 <0>         0.0571
     21 H3         -0.4388    2.4312    0.4128 H         1 <0>         0.0697
     22 H4          0.6256    0.2172    0.7503 H         1 <0>         0.0856
     23 H5         -0.9487    0.0517   -0.0636 H         1 <0>         0.0884
     24 H6          4.5958   -1.2425   -1.8007 H         1 <0>         0.4456
     25 H7          3.0009   -0.8789   -4.9498 H         1 <0>         0.1913
     26 H8          3.8228   -1.8688   -7.0459 H         1 <0>         0.2249
     27 H9          5.9477   -3.1672   -2.8350 H         1 <0>         0.2030
     28 H10         6.2178   -5.4383   -6.5501 H         1 <0>         0.4035
     29 H11         7.6855   -6.0030   -5.9587 H         1 <0>         0.4443
     30 H12        -1.6503    0.3240   -3.2034 H         1 <0>         0.0892
     31 H13        -1.7509   -1.4509   -3.2926 H         1 <0>         0.0810
     32 H14        -1.9910   -0.6230   -1.7353 H         1 <0>         0.0945
     33 H15         5.5750   -3.3890   -6.9426 H         1 <0>         0.4472
@<TRIPOS>BOND
     1    1    2 1
     2    1   19 1
     3    1   20 1
     4    1   21 1
     5    2    3 1
     6    2   22 1
     7    2   23 1
     8    3    7 1
     9    3    4 2
    10    4    5 1
    11    4   18 1
    12    5    6 1
    13    6    7 2
    14    6    8 1
    15    8    9 1
    16    8   24 1
    17    9   14 ar
    18    9   10 ar
    19   10   11 ar
    20   10   25 1
    21   11   12 ar
    22   11   26 1
    23   12   13 ar
    24   12   33 1
    25   13   14 ar
    26   13   15 1
    27   14   27 1
    28   15   16 2
    29   15   17 1
    30   17   28 1
    31   17   29 1
    32   18   30 1
    33   18   31 1
    34   18   32 1
@<TRIPOS>MOLECULE
ZINC63214780
   42    43     0     0     0
SMALL
USER_CHARGES

@<TRIPOS>ATOM
      1 C1         -0.0225    1.8097    0.0120 C.3       1 <0>        -0.6590
      2 S1          0.0021   -0.0041    0.0020 S.o2      1 <0>         2.4935
      3 O1          0.8352   -0.4880    1.0465 O.2       1 <0>        -0.9161
      4 O2         -1.3147   -0.5105   -0.1678 O.2       1 <0>        -0.9313
      5 C2          0.8454   -0.4373   -1.4831 C.ar      1 <0>        -0.7179
      6 C3          2.0600   -1.0923   -1.4227 C.ar      1 <0>         0.0221
      7 C4          2.7227   -1.4322   -2.5876 C.ar      1 <0>        -0.1698
      8 C5          2.1721   -1.1183   -3.8169 C.ar      1 <0>        -0.0165
      9 C6          0.9580   -0.4640   -3.8846 C.ar      1 <0>        -0.2027
     10 C7          0.2869   -0.1257   -2.7160 C.ar      1 <0>         0.2815
     11 N1         -0.9438    0.5315   -2.7809 N.pl3     1 <0>        -0.7714
     12 C8         -1.5314    0.8595   -4.0822 C.3       1 <0>         0.1356
     13 H1         -0.7293    1.1102   -4.7763 H         1 <0>         0.1146
     14 C9         -2.2808   -0.3768   -4.6147 C.3       1 <0>        -0.1375
     15 C10        -3.2506   -0.0335   -5.7129 C.3       1 <0>        -0.1230
     16 C11        -4.6429    0.1850   -5.0862 C.3       1 <0>        -0.1363
     17 C12        -4.7814    1.5050   -4.4888 C.3       1 <0>        -0.1105
     18 C13        -3.7863    1.7345   -3.3329 C.3       1 <0>        -0.1590
     19 C14        -2.4483    2.0867   -3.9183 C.3       1 <0>         0.0242
     20 H2         -2.6010    2.5458   -4.8950 H         1 <0>         0.1607
     21 N2         -1.7881    3.0589   -3.0369 N.4       1 <0>        -0.6418
     22 H3          1.0001    2.1870    0.0043 H         1 <0>         0.1484
     23 H4         -0.5497    2.1708   -0.8711 H         1 <0>         0.0861
     24 H5         -0.5327    2.1613    0.9088 H         1 <0>         0.1470
     25 H6          2.4927   -1.3389   -0.4643 H         1 <0>         0.1519
     26 H7          3.6726   -1.9437   -2.5374 H         1 <0>         0.1394
     27 H8          2.6925   -1.3849   -4.7249 H         1 <0>         0.1383
     28 H9          0.5288   -0.2188   -4.8448 H         1 <0>         0.1339
     29 H10        -1.4095    0.7708   -1.9643 H         1 <0>         0.3900
     30 H11        -1.5532   -1.0924   -4.9977 H         1 <0>         0.0869
     31 H12        -2.8278   -0.8387   -3.7928 H         1 <0>         0.0871
     32 H13        -2.9276    0.8786   -6.2147 H         1 <0>         0.0672
     33 H14        -3.2964   -0.8529   -6.4303 H         1 <0>         0.0826
     34 H15        -5.4009    0.0666   -5.8604 H         1 <0>         0.0772
     35 H16        -4.8060   -0.5696   -4.3167 H         1 <0>         0.0719
     36 H17        -4.6108    2.2596   -5.2566 H         1 <0>         0.0719
     37 H18        -5.7967    1.6151   -4.1077 H         1 <0>         0.0850
     38 H19        -4.1382    2.5521   -2.7037 H         1 <0>         0.0935
     39 H20        -3.6978    0.8243   -2.7397 H         1 <0>         0.1045
     40 H21        -0.9099    3.3412   -3.4456 H         1 <0>         0.4384
     41 H22        -2.3815    3.8670   -2.9232 H         1 <0>         0.4417
     42 H23        -1.6195    2.6361   -2.1363 H         1 <0>         0.4176
@<TRIPOS>BOND
     1    1    2 1
     2    1   22 1
     3    1   23 1
     4    1   24 1
     5    2    3 2
     6    2    4 2
     7    2    5 1
     8    5   10 ar
     9    5    6 ar
    10    6    7 ar
    11    6   25 1
    12    7    8 ar
    13    7   26 1
    14    8    9 ar
    15    8   27 1
    16    9   10 ar
    17    9   28 1
    18   10   11 1
    19   11   12 1
    20   11   29 1
    21   12   13 1
    22   12   19 1
    23   12   14 1
    24   14   15 1
    25   14   30 1
    26   14   31 1
    27   15   16 1
    28   15   32 1
    29   15   33 1
    30   16   17 1
    31   16   34 1
    32   16   35 1
    33   17   18 1
    34   17   36 1
    35   17   37 1
    36   18   19 1
    37   18   38 1
    38   18   39 1
    39   19   20 1
    40   19   21 1
    41   21   40 1
    42   21   41 1
    43   21   42 1
@<TRIPOS>MOLECULE
ZINC36764156
   45    47     0     0     0
SMALL
USER_CHARGES

@<TRIPOS>ATOM
      1 C1          1.6761    0.9431    0.8267 C.3       1 <0>        -0.1535
      2 C2          1.0393   -0.4067    0.4899 C.3       1 <0>        -0.0912
      3 H1          1.4374   -0.7699   -0.4575 H         1 <0>         0.0629
      4 C3         -0.4774   -0.2407    0.3757 C.3       1 <0>        -0.2543
      5 C4         -1.1142   -1.5905    0.0390 C.3       1 <0>        -0.1188
      6 C5         -0.7932   -2.5963    1.1463 C.3       1 <0>        -0.0986
      7 H2         -1.2468   -3.5580    0.9063 H         1 <0>         0.1010
      8 C6          0.7235   -2.7623    1.2604 C.3       1 <0>         0.1737
      9 C7          1.3603   -1.4125    1.5972 C.3       1 <0>        -0.1433
     10 C8          1.0398   -3.7530    2.3511 C.2       1 <0>         0.2116
     11 N1          1.7892   -4.8521    2.2101 N.2       1 <0>        -0.5697
     12 C9          1.8655   -5.4905    3.3447 C.2       1 <0>         0.3680
     13 O1          1.1588   -4.8109    4.2566 O.3       1 <0>        -0.0831
     14 N2          0.6327   -3.6756    3.5855 N.2       1 <0>        -0.2860
     15 C10         2.6194   -6.7725    3.5878 C.3       1 <0>        -0.1157
     16 C11         2.4183   -7.4655    4.9370 C.3       1 <0>        -0.1487
     17 C12         3.7354   -6.7483    4.6342 C.3       1 <0>        -0.1403
     18 N3          1.2600   -3.2519   -0.0164 N.4       1 <0>        -0.6249
     19 C13        -1.3520   -2.0864    2.4762 C.3       1 <0>        -0.0990
     20 C14        -1.3800   -0.5567    2.4646 C.3       1 <0>        -0.1893
     21 C15        -2.7722   -2.6211    2.6712 C.3       1 <0>        -0.1484
     22 H3          2.7566    0.8249    0.9080 H         1 <0>         0.0629
     23 H4          1.4474    1.6597    0.0378 H         1 <0>         0.0720
     24 H5          1.2780    1.3064    1.7741 H         1 <0>         0.0667
     25 H6         -0.8755    0.1226    1.3232 H         1 <0>         0.1877
     26 H7         -0.7061    0.4759   -0.4131 H         1 <0>         0.0810
     27 H8         -2.1947   -1.4723   -0.0424 H         1 <0>         0.1001
     28 H9         -0.7161   -1.9538   -0.9085 H         1 <0>         0.0579
     29 H10         2.4409   -1.5307    1.6786 H         1 <0>         0.0957
     30 H11         0.9622   -1.0492    2.5447 H         1 <0>         0.1273
     31 H12         2.7637   -7.4062    2.7127 H         1 <0>         0.1603
     32 H13         1.7406   -6.9940    5.6488 H         1 <0>         0.1123
     33 H14         2.4300   -8.5553    4.9497 H         1 <0>         0.1242
     34 H15         4.6137   -7.3664    4.4477 H         1 <0>         0.1249
     35 H16         3.9243   -5.8051    5.1468 H         1 <0>         0.1071
     36 H17         1.0483   -2.5886   -0.7467 H         1 <0>         0.4398
     37 H18         2.2603   -3.3613    0.0589 H         1 <0>         0.4417
     38 H19        -0.7183   -2.4320    3.2929 H         1 <0>         0.1055
     39 H20        -1.9856   -0.2108    1.6269 H         1 <0>         0.0951
     40 H21        -1.8102   -0.1941    3.3981 H         1 <0>         0.0667
     41 H22        -0.3642   -0.1755    2.3604 H         1 <0>         0.0903
     42 H23        -3.4258   -2.2042    1.9049 H         1 <0>         0.0630
     43 H24        -2.7654   -3.7081    2.5908 H         1 <0>         0.0556
     44 H25        -3.1371   -2.3319    3.6567 H         1 <0>         0.0699
     45 H26         0.8401   -4.1420   -0.2385 H         1 <0>         0.4400
@<TRIPOS>BOND
     1    1    2 1
     2    1   22 1
     3    1   23 1
     4    1   24 1
     5    2    3 1
     6    2    9 1
     7    2    4 1
     8    4    5 1
     9    4   25 1
    10    4   26 1
    11    5    6 1
    12    5   27 1
    13    5   28 1
    14    6    7 1
    15    6    8 1
    16    6   19 1
    17    8    9 1
    18    8   10 1
    19    8   18 1
    20    9   29 1
    21    9   30 1
    22   10   14 2
    23   10   11 1
    24   11   12 2
    25   12   13 1
    26   12   15 1
    27   13   14 1
    28   15   17 1
    29   15   16 1
    30   15   31 1
    31   16   17 1
    32   16   32 1
    33   16   33 1
    34   17   34 1
    35   17   35 1
    36   18   36 1
    37   18   37 1
    38   18   45 1
    39   19   20 1
    40   19   21 1
    41   19   38 1
    42   20   39 1
    43   20   40 1
    44   20   41 1
    45   21   42 1
    46   21   43 1
    47   21   44 1
@<TRIPOS>MOLECULE
ZINC41152861
   30    32     0     0     0
SMALL
USER_CHARGES

@<TRIPOS>ATOM
      1 C1         -0.0167    1.3811    0.0096 C.2       1 <0>        -0.0433
      2 C2          1.2146    1.9957    0.0012 C.2       1 <0>        -0.1497
      3 C3          2.3326    1.2291   -0.0136 C.2       1 <0>        -0.2137
      4 S1          1.7513   -0.3470   -0.0165 S.3       1 <0>         0.3636
      5 C4          0.0021   -0.0041    0.0020 C.2       1 <0>        -0.2175
      6 C5         -1.1245   -0.9441    0.0086 C.2       1 <0>         0.4286
      7 N1         -1.0372   -2.2598    0.0059 N.2       1 <0>        -0.5519
      8 C6         -2.2581   -2.7966    0.0138 C.2       1 <0>         0.2114
      9 N2         -3.1457   -1.8421    0.0217 N.2       1 <0>        -0.2916
     10 O1         -2.4302   -0.6160    0.0243 O.3       1 <0>        -0.0660
     11 C7         -2.5629   -4.2724    0.0133 C.3       1 <0>         0.1583
     12 C8         -2.0312   -4.9214   -1.2813 C.3       1 <0>        -0.1280
     13 C9         -3.1009   -5.9820   -1.6417 C.3       1 <0>        -0.1338
     14 C10        -4.4256   -5.2733   -1.2645 C.3       1 <0>        -0.1274
     15 C11        -4.0853   -4.4962    0.0240 C.3       1 <0>        -0.1427
     16 N3         -1.9520   -4.9125    1.1859 N.4       1 <0>        -0.6258
     17 Br1         4.1344    1.8028   -0.0277 Br        1 <0>         0.0751
     18 H1         -0.9389    1.9429    0.0258 H         1 <0>         0.1651
     19 H2          1.2891    3.0731    0.0059 H         1 <0>         0.1601
     20 H3         -1.9485   -4.1782   -2.0744 H         1 <0>         0.1130
     21 H4         -1.0674   -5.3975   -1.1013 H         1 <0>         0.1050
     22 H5         -3.0748   -6.2104   -2.7071 H         1 <0>         0.0996
     23 H6         -2.9639   -6.8859   -1.0482 H         1 <0>         0.0833
     24 H7         -4.7295   -4.5870   -2.0549 H         1 <0>         0.0871
     25 H8         -5.2091   -6.0063   -1.0723 H         1 <0>         0.0956
     26 H9         -4.3707   -5.0805    0.8988 H         1 <0>         0.1019
     27 H10        -4.6036   -3.5373    0.0296 H         1 <0>         0.1163
     28 H11        -2.3317   -4.5053    2.0273 H         1 <0>         0.4379
     29 H12        -2.1514   -5.9015    1.1712 H         1 <0>         0.4460
     30 H13        -0.9533   -4.7704    1.1645 H         1 <0>         0.4433
@<TRIPOS>BOND
     1    1    5 2
     2    1    2 1
     3    1   18 1
     4    2    3 2
     5    2   19 1
     6    3    4 1
     7    3   17 1
     8    4    5 1
     9    5    6 1
    10    6   10 1
    11    6    7 2
    12    7    8 1
    13    8    9 2
    14    8   11 1
    15    9   10 1
    16   11   15 1
    17   11   12 1
    18   11   16 1
    19   12   13 1
    20   12   20 1
    21   12   21 1
    22   13   14 1
    23   13   22 1
    24   13   23 1
    25   14   15 1
    26   14   24 1
    27   14   25 1
    28   15   26 1
    29   15   27 1
    30   16   28 1
    31   16   29 1
    32   16   30 1
@<TRIPOS>MOLECULE
ZINC44730047
   39    41     0     0     0
SMALL
USER_CHARGES

@<TRIPOS>ATOM
      1 C1         -0.0184    1.5028    0.0103 C.3       1 <0>        -0.0890
      2 C2          0.0021   -0.0041    0.0020 C.2       1 <0>         0.0325
      3 C3         -1.0783   -0.8055    0.0027 C.2       1 <0>        -0.2342
      4 C4         -0.6011   -2.1363   -0.0068 C.2       1 <0>        -0.2469
      5 C5          0.7423   -2.0686   -0.0126 C.2       1 <0>         0.0588
      6 O1          1.1020   -0.7746   -0.0131 O.3       1 <0>        -0.1572
      7 C6          1.6840   -3.2450   -0.0226 C.3       1 <0>        -0.0965
      8 C7         -1.4371   -3.3901   -0.0093 C.3       1 <0>         0.0999
      9 H1         -0.9410   -4.1564   -0.6049 H         1 <0>         0.1594
     10 C8         -1.6088   -3.8915    1.4260 C.3       1 <0>        -0.1782
     11 N1         -2.7558   -3.0982   -0.5871 N.4       1 <0>        -0.4865
     12 C9         -3.5274   -4.3432   -0.7000 C.3       1 <0>         0.0440
     13 H2         -3.5774   -4.8491    0.2642 H         1 <0>         0.1893
     14 C10        -4.9171   -4.0594   -1.2217 C.ar      1 <0>        -0.2088
     15 C11        -5.0316   -4.7473   -2.4232 C.ar      1 <0>         0.1821
     16 C12        -6.2262   -4.6661   -3.1358 C.ar      1 <0>        -0.1189
     17 C13        -7.2739   -3.9116   -2.6490 C.ar      1 <0>        -0.0331
     18 C14        -7.1486   -3.2308   -1.4524 C.ar      1 <0>        -0.1145
     19 C15        -5.9642   -3.3067   -0.7374 C.ar      1 <0>         0.0287
     20 Cl1        -5.8000   -2.4544    0.7660 Cl        1 <0>        -0.0417
     21 N2         -3.8484   -5.4325   -2.7013 N.am      1 <0>        -0.6401
     22 C16        -2.9171   -5.2525   -1.7452 C.2       1 <0>         0.5271
     23 O2         -1.8011   -5.7270   -1.7243 O.2       1 <0>        -0.4422
     24 H3          1.0042    1.8801    0.0026 H         1 <0>         0.0859
     25 H4         -0.5455    1.8639   -0.8728 H         1 <0>         0.0948
     26 H5         -0.5286    1.8543    0.9071 H         1 <0>         0.0957
     27 H6         -2.1119   -0.4924    0.0097 H         1 <0>         0.1501
     28 H7          1.9064   -3.5237   -1.0527 H         1 <0>         0.0964
     29 H8          2.6082   -2.9750    0.4883 H         1 <0>         0.0933
     30 H9          1.2186   -4.0873    0.4893 H         1 <0>         0.0949
     31 H10        -0.6304   -4.1080    1.8547 H         1 <0>         0.1127
     32 H11        -2.1050   -3.1252    2.0216 H         1 <0>         0.0861
     33 H12        -2.2135   -4.7984    1.4242 H         1 <0>         0.0827
     34 H13        -3.2483   -2.4502    0.0092 H         1 <0>         0.4293
     35 H14        -6.3322   -5.1947   -4.0716 H         1 <0>         0.1527
     36 H15        -8.1972   -3.8523   -3.2062 H         1 <0>         0.1606
     37 H16        -7.9714   -2.6410   -1.0762 H         1 <0>         0.1589
     38 H17        -3.7124   -5.9778   -3.4920 H         1 <0>         0.4392
     39 H18        -2.6391   -2.6907   -1.5027 H         1 <0>         0.4326
@<TRIPOS>BOND
     1    1    2 1
     2    1   24 1
     3    1   25 1
     4    1   26 1
     5    2    6 1
     6    2    3 2
     7    3    4 1
     8    3   27 1
     9    4    5 2
    10    4    8 1
    11    5    6 1
    12    5    7 1
    13    7   28 1
    14    7   29 1
    15    7   30 1
    16    8    9 1
    17    8   10 1
    18    8   11 1
    19   10   31 1
    20   10   32 1
    21   10   33 1
    22   11   12 1
    23   11   34 1
    24   11   39 1
    25   12   13 1
    26   12   22 1
    27   12   14 1
    28   14   19 ar
    29   14   15 ar
    30   15   16 ar
    31   15   21 1
    32   16   17 ar
    33   16   35 1
    34   17   18 ar
    35   17   36 1
    36   18   19 ar
    37   18   37 1
    38   19   20 1
    39   21   22 am
    40   21   38 1
    41   22   23 2
@<TRIPOS>MOLECULE
ZINC62237550
   34    36     0     0     0
SMALL
USER_CHARGES

@<TRIPOS>ATOM
      1 C1          0.4409    1.3884    0.9057 C.ar      1 <0>        -0.1096
      2 C2          1.1408    2.0889   -0.0598 C.ar      1 <0>        -0.0571
      3 C3          1.8697    1.4102   -1.0186 C.ar      1 <0>        -0.1372
      4 C4          1.9007    0.0272   -1.0146 C.ar      1 <0>         0.1326
      5 C5          1.1980   -0.6787   -0.0445 C.ar      1 <0>         0.0606
      6 C6          0.4678    0.0075    0.9159 C.ar      1 <0>        -0.0737
      7 N1          1.2263   -2.0806   -0.0370 N.pl3     1 <0>        -0.2907
      8 C7          0.1526   -2.9246    0.0725 C.2       1 <0>         0.1471
      9 C8          0.6530   -4.1924    0.0336 C.2       1 <0>        -0.1147
     10 N2          1.9761   -4.1285   -0.0942 N.2       1 <0>        -0.2039
     11 N3          2.3592   -2.9010   -0.1462 N.2       1 <0>        -0.0086
     12 C9         -0.1593   -5.4587    0.1215 C.3       1 <0>         0.0950
     13 N4         -0.4576   -5.9441   -1.2325 N.4       1 <0>        -0.6367
     14 C10        -1.2691   -2.5369    0.2072 C.ar      1 <0>        -0.0602
     15 C11        -2.0287   -3.0216    1.2724 C.ar      1 <0>        -0.0737
     16 C12        -3.3536   -2.6575    1.3948 C.ar      1 <0>        -0.1166
     17 C13        -3.9315   -1.8117    0.4624 C.ar      1 <0>         0.1046
     18 C14        -3.1814   -1.3262   -0.5992 C.ar      1 <0>         0.0826
     19 C15        -1.8523   -1.6811   -0.7271 C.ar      1 <0>        -0.0952
     20 F1         -3.7500   -0.5019   -1.5061 F         1 <0>        -0.1117
     21 F2         -5.2296   -1.4586    0.5868 F         1 <0>        -0.1096
     22 F3          2.6121   -0.6364   -1.9520 F         1 <0>        -0.1183
     23 H1         -0.1241    1.9222    1.6555 H         1 <0>         0.1512
     24 H2          1.1176    3.1686   -0.0649 H         1 <0>         0.1532
     25 H3          2.4149    1.9600   -1.7714 H         1 <0>         0.1577
     26 H4         -0.0791   -0.5380    1.6708 H         1 <0>         0.1419
     27 H5          0.4069   -6.2168    0.6626 H         1 <0>         0.1581
     28 H6         -1.0917   -5.2565    0.6486 H         1 <0>         0.1474
     29 H7         -1.0494   -5.2778   -1.7059 H         1 <0>         0.4338
     30 H8          0.4030   -6.0548   -1.7474 H         1 <0>         0.4405
     31 H9         -1.5799   -3.6815    2.0002 H         1 <0>         0.1533
     32 H10        -3.9417   -3.0331    2.2192 H         1 <0>         0.1648
     33 H11        -1.2673   -1.2998   -1.5509 H         1 <0>         0.1499
     34 H12        -0.9315   -6.8330   -1.1744 H         1 <0>         0.4433
@<TRIPOS>BOND
     1    1    6 ar
     2    1    2 ar
     3    1   23 1
     4    2    3 ar
     5    2   24 1
     6    3    4 ar
     7    3   25 1
     8    4    5 ar
     9    4   22 1
    10    5    6 ar
    11    5    7 1
    12    6   26 1
    13    7   11 1
    14    7    8 1
    15    8    9 2
    16    8   14 1
    17    9   10 1
    18    9   12 1
    19   10   11 2
    20   12   13 1
    21   12   27 1
    22   12   28 1
    23   13   29 1
    24   13   30 1
    25   13   34 1
    26   14   19 ar
    27   14   15 ar
    28   15   16 ar
    29   15   31 1
    30   16   17 ar
    31   16   32 1
    32   17   18 ar
    33   17   21 1
    34   18   19 ar
    35   18   20 1
    36   19   33 1
@<TRIPOS>MOLECULE
ZINC64131337
   38    41     0     0     0
SMALL
USER_CHARGES

@<TRIPOS>ATOM
      1 C1         -0.0162    1.3462    0.0094 C.ar      1 <0>        -0.1261
      2 C2          1.1580    2.1163    0.0024 C.ar      1 <0>         0.0377
      3 C3          2.3844    1.5506   -0.0128 C.ar      1 <0>        -0.1902
      4 C4          2.4955    0.0834   -0.0218 C.ar      1 <0>         0.3204
      5 N1          3.5285   -0.7113   -0.0363 N.pl3     1 <0>        -0.5542
      6 C5          3.0662   -2.1030   -0.0392 C.3       1 <0>         0.0606
      7 C6          1.5546   -2.0418   -0.0239 C.2       1 <0>        -0.0070
      8 C7          1.2366   -0.7013   -0.0135 C.ar      1 <0>        -0.0805
      9 C8          0.0021   -0.0041    0.0020 C.ar      1 <0>        -0.0402
     10 C9          0.6220   -3.1737   -0.0214 C.2       1 <0>         0.5609
     11 O1         -0.5779   -2.9732   -0.0087 O.2       1 <0>        -0.4832
     12 N2          1.0943   -4.4360   -0.0331 N.am      1 <0>        -0.6960
     13 C10         0.1627   -5.5666   -0.0306 C.3       1 <0>         0.1123
     14 C11         0.9517   -6.8775   -0.0456 C.3       1 <0>         0.1704
     15 H1          0.2808   -7.7364   -0.0317 H         1 <0>         0.1342
     16 N3          1.8597   -6.9347   -1.1992 N.pl3     1 <0>        -0.7417
     17 C12         3.2269   -7.0168   -0.9398 C.ar      1 <0>         0.1714
     18 C13         4.2419   -7.0806   -1.9111 C.ar      1 <0>        -0.1606
     19 C14         5.5673   -7.1604   -1.5521 C.ar      1 <0>        -0.0705
     20 C15         5.9473   -7.1801   -0.2229 C.ar      1 <0>        -0.1448
     21 C16         4.9690   -7.1186    0.7555 C.ar      1 <0>        -0.0404
     22 C17         3.6429   -7.0392    0.3950 C.ar      1 <0>        -0.1515
     23 S1          2.1443   -6.9473    1.3506 S.3       1 <0>        -0.1260
     24 H2         -0.9699    1.8529    0.0259 H         1 <0>         0.1598
     25 H3          1.0781    3.1933    0.0089 H         1 <0>         0.1674
     26 H4          3.2713    2.1667   -0.0187 H         1 <0>         0.1693
     27 H5          3.4120   -2.6114   -0.9392 H         1 <0>         0.1802
     28 H6          3.4297   -2.6210    0.8483 H         1 <0>         0.1828
     29 H7         -0.9269   -0.5548    0.0083 H         1 <0>         0.1694
     30 H8          2.0510   -4.5958   -0.0432 H         1 <0>         0.4064
     31 H9         -0.4563   -5.5254    0.8656 H         1 <0>         0.1065
     32 H10        -0.4734   -5.5153   -0.9143 H         1 <0>         0.1031
     33 H11         1.5204   -6.9164   -2.1078 H         1 <0>         0.4162
     34 H12         3.9759   -7.0670   -2.9578 H         1 <0>         0.1243
     35 H13         6.3238   -7.2080   -2.3214 H         1 <0>         0.1314
     36 H14         6.9908   -7.2430    0.0483 H         1 <0>         0.1361
     37 H15         5.2461   -7.1325    1.7993 H         1 <0>         0.1321
     38 H16         4.4559   -0.4272   -0.0443 H         1 <0>         0.4600
@<TRIPOS>BOND
     1    1    9 ar
     2    1    2 ar
     3    1   24 1
     4    2    3 ar
     5    2   25 1
     6    3    4 ar
     7    3   26 1
     8    4    8 ar
     9    4    5 2
    10    5    6 1
    11    5   38 1
    12    6    7 1
    13    6   27 1
    14    6   28 1
    15    7    8 2
    16    7   10 1
    17    8    9 ar
    18    9   29 1
    19   10   11 2
    20   10   12 am
    21   12   13 1
    22   12   30 1
    23   13   14 1
    24   13   31 1
    25   13   32 1
    26   14   15 1
    27   14   23 1
    28   14   16 1
    29   16   17 1
    30   16   33 1
    31   17   22 ar
    32   17   18 ar
    33   18   19 ar
    34   18   34 1
    35   19   20 ar
    36   19   35 1
    37   20   21 ar
    38   20   36 1
    39   21   22 ar
    40   21   37 1
    41   22   23 1
@<TRIPOS>MOLECULE
ZINC36243720
   42    44     0     0     0
SMALL
USER_CHARGES

@<TRIPOS>ATOM
      1 C1         -0.0184    1.5028    0.0103 C.3       1 <0>        -0.1196
      2 C2          0.0021   -0.0041    0.0020 C.2       1 <0>         0.0549
      3 C3          0.0055   -0.6644   -1.1744 C.2       1 <0>        -0.0589
      4 C4          0.0240   -2.0682   -1.2006 C.2       1 <0>        -0.1319
      5 C5          0.0390   -2.7656   -0.0259 C.2       1 <0>         0.2227
      6 C6          0.0356   -2.0561    1.1995 C.cat     1 <0>         0.2505
      7 N1          0.0226   -0.6864    1.1872 N.pl3     1 <0>        -0.2825
      8 C7          0.0297   -0.2699    2.4888 C.2       1 <0>        -0.0356
      9 C8          0.0526   -1.3887    3.2666 C.2       1 <0>         0.1732
     10 N2          0.0472   -2.4614    2.4604 N.pl3     1 <0>        -0.5093
     11 C9          0.0680   -1.4161    4.7503 C.ar      1 <0>        -0.1138
     12 C10         0.0535   -0.2233    5.4708 C.ar      1 <0>        -0.0329
     13 C11         0.0674   -0.2519    6.8497 C.ar      1 <0>        -0.1444
     14 C12         0.0959   -1.4673    7.5198 C.ar      1 <0>         0.1749
     15 C13         0.1103   -2.6570    6.8048 C.ar      1 <0>        -0.2042
     16 C14         0.0912   -2.6348    5.4258 C.ar      1 <0>        -0.0497
     17 O1          0.1100   -1.4924    8.8785 O.3       1 <0>        -0.3003
     18 C15         0.1392   -2.7772    9.5033 C.3       1 <0>         0.0940
     19 C16         0.1512   -2.6074   11.0007 C.2       1 <0>        -0.1534
     20 C17         0.1350   -1.4065   11.5238 C.2       1 <0>        -0.1596
     21 C18         0.1818   -3.8191   11.8962 C.3       1 <0>        -0.1154
     22 N3          0.0570   -4.1621   -0.0336 N.pl3     1 <0>        -0.8515
     23 H1          1.0042    1.8801    0.0026 H         1 <0>         0.0981
     24 H2         -0.5455    1.8639   -0.8728 H         1 <0>         0.1074
     25 H3         -0.5286    1.8543    0.9071 H         1 <0>         0.0831
     26 H4         -0.0065   -0.1102   -2.1013 H         1 <0>         0.1807
     27 H5          0.0259   -2.5938   -2.1441 H         1 <0>         0.1702
     28 H6          0.0195    0.7529    2.8356 H         1 <0>         0.2260
     29 H7          0.0318    0.7225    4.9499 H         1 <0>         0.1431
     30 H8          0.0566    0.6721    7.4086 H         1 <0>         0.1499
     31 H9          0.1325   -3.6011    7.3289 H         1 <0>         0.1435
     32 H10         0.0980   -3.5608    4.8701 H         1 <0>         0.1245
     33 H11        -0.7439   -3.3445    9.2091 H         1 <0>         0.0784
     34 H12         1.0357   -3.3127    9.1912 H         1 <0>         0.0784
     35 H13         0.1436   -1.2848   12.5969 H         1 <0>         0.1058
     36 H14         0.1131   -0.5381   10.8821 H         1 <0>         0.1084
     37 H15         1.0802   -4.4007   11.6899 H         1 <0>         0.0687
     38 H16         0.1866   -3.5004   12.9386 H         1 <0>         0.0735
     39 H17        -0.6993   -4.4324   11.7078 H         1 <0>         0.0686
     40 H18         0.0589   -4.6425   -0.8763 H         1 <0>         0.4262
     41 H19         0.0677   -4.6516    0.8038 H         1 <0>         0.4049
     42 H20         0.0604   -3.3858    2.7540 H         1 <0>         0.4537
@<TRIPOS>BOND
     1    1    2 1
     2    1   23 1
     3    1   24 1
     4    1   25 1
     5    2    7 1
     6    2    3 2
     7    3    4 1
     8    3   26 1
     9    4    5 2
    10    4   27 1
    11    5    6 1
    12    5   22 1
    13    6   10 2
    14    6    7 1
    15    7    8 1
    16    8    9 2
    17    8   28 1
    18    9   10 1
    19    9   11 1
    20   10   42 1
    21   11   16 ar
    22   11   12 ar
    23   12   13 ar
    24   12   29 1
    25   13   14 ar
    26   13   30 1
    27   14   15 ar
    28   14   17 1
    29   15   16 ar
    30   15   31 1
    31   16   32 1
    32   17   18 1
    33   18   19 1
    34   18   33 1
    35   18   34 1
    36   19   20 2
    37   19   21 1
    38   20   35 1
    39   20   36 1
    40   21   37 1
    41   21   38 1
    42   21   39 1
    43   22   40 1
    44   22   41 1
@<TRIPOS>MOLECULE
ZINC43250001
   41    43     0     0     0
SMALL
USER_CHARGES

@<TRIPOS>ATOM
      1 C1         -0.2511    1.5948    0.1128 C.3       1 <0>        -0.1703
      2 C2         -0.1329    0.0700    0.0704 C.3       1 <0>        -0.1561
      3 C3         -1.5317   -0.5494    0.0444 C.3       1 <0>         0.0085
      4 H1         -2.1078   -0.1816    0.8935 H         1 <0>         0.1583
      5 C4         -1.4165   -2.0728    0.1278 C.3       1 <0>         0.1643
      6 H2         -0.8404   -2.4406   -0.7213 H         1 <0>         0.1177
      7 C5         -2.7942   -2.6829    0.1022 C.2       1 <0>        -0.2553
      8 C6         -3.4206   -3.3345   -0.9079 C.2       1 <0>        -0.0728
      9 C7         -4.6999   -3.8163   -0.7033 C.2       1 <0>        -0.1747
     10 C8         -5.2903   -3.6230    0.5014 C.2       1 <0>        -0.1322
     11 S1         -4.0219   -2.7420    1.3970 S.3       1 <0>         0.1122
     12 C9         -2.7327   -3.5302   -2.2344 C.3       1 <0>        -0.1160
     13 O1         -0.7577   -2.4349    1.3431 O.3       1 <0>        -0.2705
     14 C10         0.5673   -2.7299    1.2628 C.ar      1 <0>         0.1168
     15 C11         1.2400   -3.2070    2.3779 C.ar      1 <0>        -0.1230
     16 C12         2.5868   -3.5076    2.2986 C.ar      1 <0>        -0.0550
     17 C13         3.2684   -3.3331    1.1053 C.ar      1 <0>         0.0136
     18 C14         2.5951   -2.8542   -0.0156 C.ar      1 <0>         0.0767
     19 C15         1.2439   -2.5590    0.0647 C.ar      1 <0>        -0.1983
     20 O2          3.4782   -2.7721   -1.0533 O.3       1 <0>        -0.3058
     21 C16         4.7851   -2.8163   -0.4507 C.3       1 <0>         0.2130
     22 O3          4.5744   -3.5512    0.7694 O.3       1 <0>        -0.3006
     23 N1         -2.2089   -0.1772   -1.2049 N.4       1 <0>        -0.6306
     24 H3          0.7454    2.0361    0.1313 H         1 <0>         0.0869
     25 H4         -0.7861    1.9425   -0.7710 H         1 <0>         0.0538
     26 H5         -0.7969    1.8922    1.0082 H         1 <0>         0.0758
     27 H6          0.4128   -0.2274   -0.8251 H         1 <0>         0.0924
     28 H7          0.4021   -0.2777    0.9541 H         1 <0>         0.1195
     29 H8         -5.2214   -4.3387   -1.4917 H         1 <0>         0.1474
     30 H9         -6.2717   -3.9268    0.8345 H         1 <0>         0.1980
     31 H10        -2.1777   -4.4683   -2.2210 H         1 <0>         0.0887
     32 H11        -3.4780   -3.5604   -3.0292 H         1 <0>         0.0843
     33 H12        -2.0449   -2.7036   -2.4125 H         1 <0>         0.0501
     34 H13         0.7109   -3.3435    3.3095 H         1 <0>         0.1534
     35 H14         3.1086   -3.8786    3.1683 H         1 <0>         0.1526
     36 H15         0.7187   -2.1917   -0.8046 H         1 <0>         0.1356
     37 H16         5.4877   -3.3415   -1.0977 H         1 <0>         0.1398
     38 H17         5.1414   -1.8091   -0.2344 H         1 <0>         0.0919
     39 H18        -1.6757   -0.5177   -1.9909 H         1 <0>         0.4314
     40 H19        -3.1314   -0.5857   -1.2220 H         1 <0>         0.4373
     41 H20        -2.2849    0.8274   -1.2599 H         1 <0>         0.4412
@<TRIPOS>BOND
     1    1    2 1
     2    1   24 1
     3    1   25 1
     4    1   26 1
     5    2    3 1
     6    2   27 1
     7    2   28 1
     8    3    4 1
     9    3    5 1
    10    3   23 1
    11    5    6 1
    12    5    7 1
    13    5   13 1
    14    7   11 1
    15    7    8 2
    16    8    9 1
    17    8   12 1
    18    9   10 2
    19    9   29 1
    20   10   11 1
    21   10   30 1
    22   12   31 1
    23   12   32 1
    24   12   33 1
    25   13   14 1
    26   14   19 ar
    27   14   15 ar
    28   15   16 ar
    29   15   34 1
    30   16   17 ar
    31   16   35 1
    32   17   22 1
    33   17   18 ar
    34   18   19 ar
    35   18   20 1
    36   19   36 1
    37   20   21 1
    38   21   22 1
    39   21   37 1
    40   21   38 1
    41   23   39 1
    42   23   40 1
    43   23   41 1
@<TRIPOS>MOLECULE
ZINC54796697
   32    33     0     0     0
SMALL
USER_CHARGES

@<TRIPOS>ATOM
      1 C1         -0.0184    1.5028    0.0103 C.3       1 <0>        -0.1072
      2 C2          0.0021   -0.0041    0.0020 C.2       1 <0>         0.0655
      3 C3          0.0078   -0.7894   -1.0919 C.2       1 <0>         0.0266
      4 N1          0.0283   -2.0846   -0.6496 N.pl3     1 <0>        -0.5013
      5 H1          0.0368   -2.8816   -1.2024 H         1 <0>         0.4675
      6 C4          0.0343   -2.0456    0.7003 C.cat     1 <0>         0.3182
      7 N2          0.0236   -0.7980    1.0829 N.pl3     1 <0>        -0.4770
      8 C5         -0.0061   -0.3305   -2.5273 C.3       1 <0>         0.1883
      9 N3          1.3466    0.0662   -2.9263 N.pl3     1 <0>        -0.7437
     10 C6          1.5851    0.5310   -4.2244 C.ar      1 <0>         0.2369
     11 C7          0.5389    0.6217   -5.1328 C.ar      1 <0>        -0.1775
     12 C8          0.7751    1.0809   -6.4150 C.ar      1 <0>         0.0201
     13 C9          2.0575    1.4508   -6.7945 C.ar      1 <0>         0.0385
     14 C10         3.1035    1.3599   -5.8872 C.ar      1 <0>         0.0202
     15 C11         2.8671    0.9071   -4.6028 C.ar      1 <0>        -0.1665
     16 Cl1         4.7078    1.8218   -6.3632 Cl        1 <0>        -0.0204
     17 O1          2.2895    1.9023   -8.0568 O.3       1 <0>        -0.3128
     18 C12         2.1701    3.3095   -8.2747 C.3       1 <0>         0.4035
     19 F1          0.8703    3.7213   -7.9611 F         1 <0>        -0.1972
     20 F2          3.0832    3.9868   -7.4594 F         1 <0>        -0.1968
     21 Cl2        -0.5328    1.1944   -7.5509 Cl        1 <0>        -0.0218
     22 H2          1.0042    1.8801    0.0026 H         1 <0>         0.1057
     23 H3         -0.5455    1.8639   -0.8728 H         1 <0>         0.1088
     24 H4         -0.5286    1.8543    0.9071 H         1 <0>         0.0966
     25 H5          0.0496   -2.9046    1.3548 H         1 <0>         0.2704
     26 H6         -0.3491   -1.1447   -3.1657 H         1 <0>         0.0955
     27 H7         -0.6795    0.5204   -2.6302 H         1 <0>         0.1106
     28 H8          2.0768    0.0066   -2.2906 H         1 <0>         0.4086
     29 H9         -0.4591    0.3332   -4.8377 H         1 <0>         0.1452
     30 H10         3.6803    0.8413   -3.8951 H         1 <0>         0.1473
     31 H11         2.3802    3.5344   -9.3203 H         1 <0>         0.1809
     32 H12         0.0285   -0.4929    2.0036 H         1 <0>         0.4675
@<TRIPOS>BOND
     1    1    2 1
     2    1   22 1
     3    1   23 1
     4    1   24 1
     5    2    7 1
     6    2    3 2
     7    3    4 1
     8    3    8 1
     9    4    5 1
    10    4    6 1
    11    6    7 2
    12    6   25 1
    13    7   32 1
    14    8    9 1
    15    8   26 1
    16    8   27 1
    17    9   10 1
    18    9   28 1
    19   10   15 ar
    20   10   11 ar
    21   11   12 ar
    22   11   29 1
    23   12   13 ar
    24   12   21 1
    25   13   14 ar
    26   13   17 1
    27   14   15 ar
    28   14   16 1
    29   15   30 1
    30   17   18 1
    31   18   19 1
    32   18   20 1
    33   18   31 1
@<TRIPOS>MOLECULE
ZINC59992932
   57    57     0     0     0
SMALL
USER_CHARGES

@<TRIPOS>ATOM
      1 C1          0.9318    2.2749    0.4609 C.3       1 <0>        -0.1513
      2 C2          0.5741    0.7987    0.2774 C.3       1 <0>        -0.1088
      3 H1          0.9716    0.4433   -0.6733 H         1 <0>         0.0924
      4 C3         -0.9486    0.6363    0.2877 C.3       1 <0>        -0.1294
      5 C4         -1.2942   -0.8518    0.1822 C.3       1 <0>        -0.1117
      6 H2         -2.3748   -0.9799    0.2448 H         1 <0>         0.1206
      7 C5         -0.6226   -1.6085    1.3302 C.3       1 <0>        -0.0137
      8 N1          0.8328   -1.4357    1.2496 N.4       1 <0>        -0.3772
      9 C6          1.1774   -0.0192    1.4213 C.3       1 <0>        -0.0165
     10 C7          1.4776   -2.2265    2.3064 C.3       1 <0>         0.0453
     11 C8          0.9631   -1.7679    3.6724 C.3       1 <0>        -0.1753
     12 C9          1.1480   -3.7074    2.1082 C.3       1 <0>        -0.1774
     13 C10         2.9931   -2.0279    2.2393 C.3       1 <0>         0.1223
     14 N2          3.4744   -2.3896    0.9037 N.am      1 <0>        -0.7666
     15 C11         4.7677   -2.1957    0.5780 C.2       1 <0>         0.7066
     16 O1          5.5351   -1.7206    1.3927 O.2       1 <0>        -0.5689
     17 N3          5.2104   -2.5285   -0.6507 N.am      1 <0>        -0.7320
     18 C12         6.6163   -2.3177   -1.0047 C.3       1 <0>         0.1621
     19 H3          6.9822   -1.4140   -0.5172 H         1 <0>         0.0922
     20 C13         7.4443   -3.5180   -0.5416 C.3       1 <0>        -0.1693
     21 C14         6.7429   -2.1656   -2.5219 C.3       1 <0>        -0.1035
     22 C15         5.9149   -0.9653   -2.9850 C.3       1 <0>        -0.1465
     23 C16         8.2112   -1.9455   -2.8916 C.3       1 <0>        -0.1510
     24 C17        -0.7915   -1.3995   -1.1551 C.3       1 <0>        -0.1706
     25 H4          2.0157    2.3896    0.4551 H         1 <0>         0.0681
     26 H5          0.5004    2.8572   -0.3533 H         1 <0>         0.0780
     27 H6          0.5340    2.6297    1.4117 H         1 <0>         0.0681
     28 H7         -1.3519    1.0392    1.2168 H         1 <0>         0.0842
     29 H8         -1.3779    1.1712   -0.5595 H         1 <0>         0.0955
     30 H9         -0.9823   -1.2175    2.2819 H         1 <0>         0.1345
     31 H10        -0.8667   -2.6683    1.2582 H         1 <0>         0.1332
     32 H11         2.2615    0.0944    1.4162 H         1 <0>         0.1319
     33 H12         0.7800    0.3376    2.3715 H         1 <0>         0.1341
     34 H13        -0.1166   -1.9094    3.7202 H         1 <0>         0.0901
     35 H14         1.4415   -2.3547    4.4565 H         1 <0>         0.1104
     36 H15         1.1979   -0.7129    3.8136 H         1 <0>         0.0864
     37 H16         1.5145   -4.0341    1.1351 H         1 <0>         0.0783
     38 H17         1.6264   -4.2942    2.8924 H         1 <0>         0.1115
     39 H18         0.0683   -3.8489    2.1560 H         1 <0>         0.0887
     40 H19         3.2320   -0.9837    2.4411 H         1 <0>         0.0971
     41 H20         3.4759   -2.6615    2.9833 H         1 <0>         0.1111
     42 H21         2.8621   -2.7687    0.2537 H         1 <0>         0.3882
     43 H22         4.5982   -2.9075   -1.3007 H         1 <0>         0.3952
     44 H23         7.0784   -4.4216   -1.0291 H         1 <0>         0.0575
     45 H24         8.4903   -3.3612   -0.8050 H         1 <0>         0.0751
     46 H25         7.3541   -3.6263    0.5392 H         1 <0>         0.0609
     47 H26         6.3770   -3.0693   -3.0094 H         1 <0>         0.0761
     48 H27         6.2808   -0.0617   -2.4975 H         1 <0>         0.0573
     49 H28         6.0051   -0.8570   -4.0659 H         1 <0>         0.0611
     50 H29         4.8689   -1.1221   -2.7216 H         1 <0>         0.0479
     51 H30         8.8011   -2.8006   -2.5617 H         1 <0>         0.0641
     52 H31         8.3014   -1.8372   -3.9725 H         1 <0>         0.0636
     53 H32         8.5771   -1.0419   -2.4041 H         1 <0>         0.0601
     54 H33         0.2894   -1.2726   -1.2165 H         1 <0>         0.0480
     55 H34        -1.0377   -2.4587   -1.2296 H         1 <0>         0.0731
     56 H35        -1.2679   -0.8574   -1.9719 H         1 <0>         0.0861
     57 H36         1.1587   -1.7526    0.3488 H         1 <0>         0.4126
@<TRIPOS>BOND
     1    1    2 1
     2    1   25 1
     3    1   26 1
     4    1   27 1
     5    2    3 1
     6    2    9 1
     7    2    4 1
     8    4    5 1
     9    4   28 1
    10    4   29 1
    11    5    6 1
    12    5    7 1
    13    5   24 1
    14    7    8 1
    15    7   30 1
    16    7   31 1
    17    8    9 1
    18    8   10 1
    19    8   57 1
    20    9   32 1
    21    9   33 1
    22   10   11 1
    23   10   12 1
    24   10   13 1
    25   11   34 1
    26   11   35 1
    27   11   36 1
    28   12   37 1
    29   12   38 1
    30   12   39 1
    31   13   14 1
    32   13   40 1
    33   13   41 1
    34   14   15 am
    35   14   42 1
    36   15   16 2
    37   15   17 am
    38   17   18 1
    39   17   43 1
    40   18   19 1
    41   18   20 1
    42   18   21 1
    43   20   44 1
    44   20   45 1
    45   20   46 1
    46   21   22 1
    47   21   23 1
    48   21   47 1
    49   22   48 1
    50   22   49 1
    51   22   50 1
    52   23   51 1
    53   23   52 1
    54   23   53 1
    55   24   54 1
    56   24   55 1
    57   24   56 1
@<TRIPOS>MOLECULE
ZINC65335275
   41    43     0     0     0
SMALL
USER_CHARGES

@<TRIPOS>ATOM
      1 C1         -0.0406    1.5564   -0.0689 C.3       1 <0>        -0.1552
      2 C2         -0.0238    0.0265   -0.0620 C.3       1 <0>         0.0608
      3 O1          0.6599   -0.4476   -1.2238 O.3       1 <0>        -0.3283
      4 C3          0.7631   -1.7779   -1.3697 C.2       1 <0>         0.4756
      5 O2          0.2886   -2.5155   -0.5386 O.2       1 <0>        -0.4624
      6 C4          1.4707   -2.3516   -2.5702 C.3       1 <0>         0.1105
      7 H1          1.2118   -1.7848   -3.4645 H         1 <0>         0.2041
      8 C5          2.9677   -2.3275   -2.3534 C.2       1 <0>         0.1265
      9 C6          3.3751   -3.6485   -2.4079 C.ar      1 <0>        -0.1182
     10 C7          4.6426   -4.2682   -2.2795 C.ar      1 <0>        -0.1013
     11 C8          4.7600   -5.6121   -2.3780 C.ar      1 <0>        -0.0405
     12 C9          3.6615   -6.4461   -2.6075 C.ar      1 <0>        -0.0853
     13 C10         2.4022   -5.9509   -2.7454 C.ar      1 <0>         0.1641
     14 C11         2.1922   -4.4972   -2.6502 C.ar      1 <0>         0.3008
     15 N1          1.1086   -3.7621   -2.7437 N.pl3     1 <0>        -0.5767
     16 N2          1.3250   -6.8086   -2.9733 N.pl3     1 <0>        -0.8640
     17 C12         6.1255   -6.2335   -2.2357 C.3       1 <0>        -0.1285
     18 C13         3.8106   -1.1504   -2.1322 C.ar      1 <0>        -0.1096
     19 C14         4.9332   -1.2336   -1.2962 C.ar      1 <0>        -0.0587
     20 C15         5.7202   -0.1209   -1.0941 C.ar      1 <0>        -0.1224
     21 C16         5.4052    1.0771   -1.7132 C.ar      1 <0>        -0.0563
     22 C17         4.2985    1.1690   -2.5405 C.ar      1 <0>        -0.1207
     23 C18         3.5032    0.0653   -2.7596 C.ar      1 <0>        -0.0539
     24 H2          0.9830    1.9310   -0.0663 H         1 <0>         0.0720
     25 H3         -0.5547    1.9101   -0.9627 H         1 <0>         0.0727
     26 H4         -0.5622    1.9180    0.8173 H         1 <0>         0.0919
     27 H5          0.4902   -0.3272    0.8317 H         1 <0>         0.0787
     28 H6         -1.0474   -0.3481   -0.0646 H         1 <0>         0.0797
     29 H7          5.5201   -3.6641   -2.1023 H         1 <0>         0.1539
     30 H8          3.8171   -7.5125   -2.6774 H         1 <0>         0.1593
     31 H9          1.4715   -7.7655   -3.0345 H         1 <0>         0.4219
     32 H10         0.4299   -6.4478   -3.0706 H         1 <0>         0.4022
     33 H11         6.3095   -6.4703   -1.1878 H         1 <0>         0.0875
     34 H12         6.1725   -7.1471   -2.8284 H         1 <0>         0.0806
     35 H13         6.8822   -5.5325   -2.5881 H         1 <0>         0.0809
     36 H14         5.1800   -2.1669   -0.8120 H         1 <0>         0.1384
     37 H15         6.5853   -0.1831   -0.4505 H         1 <0>         0.1438
     38 H16         6.0263    1.9453   -1.5495 H         1 <0>         0.1416
     39 H17         4.0603    2.1075   -3.0189 H         1 <0>         0.1434
     40 H18         2.6433    0.1375   -3.4090 H         1 <0>         0.1363
     41 H19         0.2121   -4.0973   -2.9013 H         1 <0>         0.4551
@<TRIPOS>BOND
     1    1    2 1
     2    1   24 1
     3    1   25 1
     4    1   26 1
     5    2    3 1
     6    2   27 1
     7    2   28 1
     8    3    4 1
     9    4    5 2
    10    4    6 1
    11    6    7 1
    12    6   15 1
    13    6    8 1
    14    8    9 2
    15    8   18 1
    16    9   14 ar
    17    9   10 ar
    18   10   11 ar
    19   10   29 1
    20   11   12 ar
    21   11   17 1
    22   12   13 ar
    23   12   30 1
    24   13   14 ar
    25   13   16 1
    26   14   15 2
    27   15   41 1
    28   16   31 1
    29   16   32 1
    30   17   33 1
    31   17   34 1
    32   17   35 1
    33   18   23 ar
    34   18   19 ar
    35   19   20 ar
    36   19   36 1
    37   20   21 ar
    38   20   37 1
    39   21   22 ar
    40   21   38 1
    41   22   23 ar
    42   22   39 1
    43   23   40 1
@<TRIPOS>MOLECULE
ZINC12116845
   49    52     0     0     0
SMALL
USER_CHARGES
N-[(1S)-1-indan-5-ylethyl]-2,4,5,6,7,8-hexahydrocyclohepta[d]pyrazole-3-carboxamide
@<TRIPOS>ATOM
      1 C1          4.4471    7.1343    0.9645 C.3       1 <0>        -0.1592
      2 C2          5.2674    5.8457    1.0510 C.3       1 <0>         0.1886
      3 H1          5.4710    5.4764    0.0459 H         1 <0>         0.1013
      4 C3          6.5692    6.1253    1.7568 C.ar      1 <0>        -0.0943
      5 C4          6.6059    6.2003    3.1368 C.ar      1 <0>        -0.1167
      6 C5          7.8001    6.4561    3.7815 C.ar      1 <0>        -0.1018
      7 C6          8.9621    6.6381    3.0501 C.ar      1 <0>        -0.0936
      8 C7          8.9253    6.5633    1.6705 C.ar      1 <0>        -0.0904
      9 C8          7.7277    6.3014    1.0260 C.ar      1 <0>        -0.0929
     10 C9         10.3114    6.7957    1.1082 C.3       1 <0>        -0.0851
     11 C10        11.2707    6.5859    2.2990 C.3       1 <0>        -0.1215
     12 C11        10.3754    6.9259    3.5095 C.3       1 <0>        -0.0850
     13 N1          4.5135    4.8363    1.7988 N.am      1 <0>        -0.7240
     14 C12         3.6084    4.0647    1.1649 C.2       1 <0>         0.5961
     15 O1          3.4174    4.2064   -0.0279 O.2       1 <0>        -0.5132
     16 C13         2.8512    3.0507    1.9160 C.2       1 <0>        -0.0469
     17 C14         1.8985    2.1899    1.4182 C.2       1 <0>        -0.1051
     18 C15         1.4640    1.4310    2.5065 C.2       1 <0>         0.0332
     19 N2          2.1328    1.8250    3.5572 N.2       1 <0>        -0.2598
     20 N3          2.9502    2.7703    3.2517 N.pl3     1 <0>        -0.3894
     21 H2          3.5645    3.2302    3.8929 H         1 <0>         0.4484
     22 C16         0.4055    0.3579    2.4467 C.3       1 <0>        -0.0366
     23 C17         0.6854   -0.5549    1.2489 C.3       1 <0>        -0.1153
     24 C18         0.0021   -0.0041    0.0020 C.3       1 <0>        -0.1215
     25 C19        -0.0186    1.5207    0.0104 C.3       1 <0>        -0.1227
     26 C20         1.4171    2.0566   -0.0004 C.3       1 <0>        -0.0499
     27 H3          5.0080    7.8853    0.4081 H         1 <0>         0.0714
     28 H4          3.5055    6.9320    0.4540 H         1 <0>         0.0676
     29 H5          4.2435    7.5036    1.9696 H         1 <0>         0.0596
     30 H6          5.7016    6.0592    3.7101 H         1 <0>         0.1195
     31 H7          7.8280    6.5148    4.8596 H         1 <0>         0.1228
     32 H8          7.6990    6.2386   -0.0518 H         1 <0>         0.1242
     33 H9         10.5251    6.0751    0.3189 H         1 <0>         0.0769
     34 H10        10.3990    7.8130    0.7267 H         1 <0>         0.0826
     35 H11        11.6092    5.5509    2.3461 H         1 <0>         0.0730
     36 H12        12.1194    7.2670    2.2375 H         1 <0>         0.0788
     37 H13        10.4803    7.9781    3.7738 H         1 <0>         0.0820
     38 H14        10.6328    6.2941    4.3596 H         1 <0>         0.0762
     39 H15         4.6659    4.7232    2.7500 H         1 <0>         0.3939
     40 H16        -0.5754    0.8193    2.3320 H         1 <0>         0.0872
     41 H17         0.4272   -0.2288    3.3651 H         1 <0>         0.0788
     42 H18         0.3039   -1.5542    1.4587 H         1 <0>         0.0706
     43 H19         1.7606   -0.6084    1.0783 H         1 <0>         0.0639
     44 H20        -1.0222   -0.3748   -0.0370 H         1 <0>         0.0629
     45 H21         0.5394   -0.3490   -0.8814 H         1 <0>         0.0638
     46 H22        -0.5469    1.8811   -0.8723 H         1 <0>         0.0677
     47 H23        -0.5299    1.8716    0.9068 H         1 <0>         0.0693
     48 H24         2.0615    1.3632   -0.5409 H         1 <0>         0.0785
     49 H25         1.4390    3.0320   -0.4865 H         1 <0>         0.0865
@<TRIPOS>BOND
     1    1    2 1
     2    1   27 1
     3    1   28 1
     4    1   29 1
     5    2    3 1
     6    2    4 1
     7    2   13 1
     8    4    9 ar
     9    4    5 ar
    10    5    6 ar
    11    5   30 1
    12    6    7 ar
    13    6   31 1
    14    7   12 1
    15    7    8 ar
    16    8    9 ar
    17    8   10 1
    18    9   32 1
    19   10   11 1
    20   10   33 1
    21   10   34 1
    22   11   12 1
    23   11   35 1
    24   11   36 1
    25   12   37 1
    26   12   38 1
    27   13   14 am
    28   13   39 1
    29   14   15 2
    30   14   16 1
    31   16   20 1
    32   16   17 2
    33   17   26 1
    34   17   18 1
    35   18   19 2
    36   18   22 1
    37   19   20 1
    38   20   21 1
    39   22   23 1
    40   22   40 1
    41   22   41 1
    42   23   24 1
    43   23   42 1
    44   23   43 1
    45   24   25 1
    46   24   44 1
    47   24   45 1
    48   25   26 1
    49   25   46 1
    50   25   47 1
    51   26   48 1
    52   26   49 1
@<TRIPOS>MOLECULE
ZINC37351051
   37    39     0     0     0
SMALL
USER_CHARGES

@<TRIPOS>ATOM
      1 C1         -0.0187    1.5258    0.0104 C.3       1 <0>        -0.1536
      2 C2          0.0021   -0.0041    0.0020 C.3       1 <0>         0.0542
      3 O1          0.6709   -0.4649   -1.1737 O.3       1 <0>        -0.3159
      4 C3          0.7768   -1.8105   -1.3362 C.ar      1 <0>         0.1334
      5 C4          0.2415   -2.6670   -0.3843 C.ar      1 <0>        -0.2059
      6 C5          0.3471   -4.0329   -0.5459 C.ar      1 <0>        -0.0698
      7 C6          0.9925   -4.5528   -1.6674 C.ar      1 <0>        -0.0401
      8 C7          1.5291   -3.6892   -2.6218 C.ar      1 <0>        -0.0603
      9 C8          1.4149   -2.3245   -2.4564 C.ar      1 <0>        -0.1460
     10 C9          1.1083   -6.0196   -1.8443 C.2       1 <0>        -0.2976
     11 C10         2.3454   -6.8066   -1.8421 C.2       1 <0>         0.2355
     12 N1          2.0047   -8.0621   -2.0299 N.2       1 <0>        -0.3088
     13 O2          0.5990   -8.1390   -2.1558 O.3       1 <0>        -0.1060
     14 C11         0.0728   -6.9101   -2.0370 C.2       1 <0>         0.3665
     15 N2         -1.2689   -6.5928   -2.0996 N.pl3     1 <0>        -0.8099
     16 C12         3.7160   -6.2866   -1.6631 C.2       1 <0>        -0.1305
     17 C13         4.9042   -6.9686   -1.6573 C.2       1 <0>        -0.0677
     18 C14         6.0714   -6.2631   -1.4708 C.2       1 <0>        -0.1653
     19 C15         6.0109   -4.9168   -1.2986 C.2       1 <0>        -0.1648
     20 S1          4.2565   -4.6045   -1.4058 S.3       1 <0>         0.1166
     21 C16         4.9328   -8.4628   -1.8510 C.3       1 <0>        -0.1094
     22 H1          1.0039    1.9031    0.0027 H         1 <0>         0.0669
     23 H2         -0.5459    1.8868   -0.8726 H         1 <0>         0.0667
     24 H3         -0.5289    1.8773    0.9072 H         1 <0>         0.0789
     25 H4          0.5293   -0.3651    0.8851 H         1 <0>         0.0625
     26 H5         -1.0205   -0.3814    0.0098 H         1 <0>         0.0619
     27 H6         -0.2579   -2.2637    0.4842 H         1 <0>         0.1284
     28 H7         -0.0694   -4.6988    0.1954 H         1 <0>         0.1229
     29 H8          2.0297   -4.0884   -3.4915 H         1 <0>         0.1282
     30 H9          1.8261   -1.6551   -3.1976 H         1 <0>         0.1325
     31 H10        -1.5541   -5.6706   -2.0042 H         1 <0>         0.4272
     32 H11        -1.9266   -7.2920   -2.2389 H         1 <0>         0.4136
     33 H12         7.0232   -6.7733   -1.4610 H         1 <0>         0.1399
     34 H13         6.8170   -4.2155   -1.1415 H         1 <0>         0.1910
     35 H14         5.0211   -8.6898   -2.9135 H         1 <0>         0.0752
     36 H15         5.7860   -8.8820   -1.3178 H         1 <0>         0.0689
     37 H16         4.0120   -8.8973   -1.4620 H         1 <0>         0.0807
@<TRIPOS>BOND
     1    1    2 1
     2    1   22 1
     3    1   23 1
     4    1   24 1
     5    2    3 1
     6    2   25 1
     7    2   26 1
     8    3    4 1
     9    4    9 ar
    10    4    5 ar
    11    5    6 ar
    12    5   27 1
    13    6    7 ar
    14    6   28 1
    15    7    8 ar
    16    7   10 1
    17    8    9 ar
    18    8   29 1
    19    9   30 1
    20   10   14 2
    21   10   11 1
    22   11   12 2
    23   11   16 1
    24   12   13 1
    25   13   14 1
    26   14   15 1
    27   15   31 1
    28   15   32 1
    29   16   20 1
    30   16   17 2
    31   17   18 1
    32   17   21 1
    33   18   19 2
    34   18   33 1
    35   19   20 1
    36   19   34 1
    37   21   35 1
    38   21   36 1
    39   21   37 1
@<TRIPOS>MOLECULE
ZINC42879957
   31    33     0     0     0
SMALL
USER_CHARGES

@<TRIPOS>ATOM
      1 C1         -0.0167    1.3790    0.0096 C.ar      1 <0>        -0.0657
      2 C2          1.1694    2.0883    0.0021 C.ar      1 <0>        -0.1620
      3 C3          2.3812    1.4122   -0.0131 C.ar      1 <0>         0.1969
      4 C4          2.3983    0.0212   -0.0208 C.ar      1 <0>         0.0323
      5 C5          1.2085   -0.6827   -0.0132 C.ar      1 <0>        -0.0960
      6 C6          0.0021   -0.0041    0.0020 C.ar      1 <0>        -0.0678
      7 Cl1        -1.4904   -0.8907    0.0115 Cl        1 <0>        -0.0640
      8 F1          3.5758   -0.6408   -0.0360 F         1 <0>        -0.1371
      9 N1          3.5833    2.1280   -0.0212 N.pl3     1 <0>        -0.7372
     10 C7          3.5636    3.5928   -0.0136 C.3       1 <0>         0.1759
     11 C8          4.9774    4.1143   -0.0248 C.ar      1 <0>        -0.1290
     12 C9          5.5048    4.6551   -1.1828 C.ar      1 <0>        -0.0641
     13 C10         6.8035    5.1355   -1.1962 C.ar      1 <0>         0.0231
     14 C11         7.5794    5.0731   -0.0410 C.ar      1 <0>         0.0620
     15 C12         7.0489    4.5316    1.1180 C.ar      1 <0>        -0.1307
     16 C13         5.7459    4.0563    1.1279 C.ar      1 <0>         0.1394
     17 O1          5.2234    3.5292    2.2672 O.3       1 <0>        -0.4824
     18 O2          8.8075    5.6043   -0.3110 O.3       1 <0>        -0.3043
     19 C14         8.9137    5.6177   -1.7468 C.3       1 <0>         0.2125
     20 O3          7.5467    5.7062   -2.1902 O.3       1 <0>        -0.3046
     21 H1         -0.9596    1.9054    0.0260 H         1 <0>         0.1404
     22 H2          1.1533    3.1682    0.0077 H         1 <0>         0.1416
     23 H3          1.2202   -1.7626   -0.0191 H         1 <0>         0.1452
     24 H4          4.4297    1.6544   -0.0319 H         1 <0>         0.4038
     25 H5          3.0363    3.9537   -0.8967 H         1 <0>         0.0761
     26 H6          3.0536    3.9447    0.8832 H         1 <0>         0.0849
     27 H7          4.9028    4.7032   -2.0782 H         1 <0>         0.1444
     28 H8          7.6487    4.4820    2.0147 H         1 <0>         0.1462
     29 H9          5.3653    2.5772    2.3612 H         1 <0>         0.3947
     30 H10         9.4817    6.4861   -2.0808 H         1 <0>         0.1367
     31 H11         9.3738    4.6969   -2.1055 H         1 <0>         0.0889
@<TRIPOS>BOND
     1    1    6 ar
     2    1    2 ar
     3    1   21 1
     4    2    3 ar
     5    2   22 1
     6    3    4 ar
     7    3    9 1
     8    4    5 ar
     9    4    8 1
    10    5    6 ar
    11    5   23 1
    12    6    7 1
    13    9   10 1
    14    9   24 1
    15   10   11 1
    16   10   25 1
    17   10   26 1
    18   11   16 ar
    19   11   12 ar
    20   12   13 ar
    21   12   27 1
    22   13   20 1
    23   13   14 ar
    24   14   15 ar
    25   14   18 1
    26   15   16 ar
    27   15   28 1
    28   16   17 1
    29   17   29 1
    30   18   19 1
    31   19   20 1
    32   19   30 1
    33   19   31 1
@<TRIPOS>MOLECULE
ZINC13895892
   27    28     0     0     0
SMALL
USER_CHARGES

@<TRIPOS>ATOM
      1 C1         -0.0167    1.3836    0.0096 C.ar      1 <0>        -0.0223
      2 C2          1.1899    2.0609    0.0018 C.ar      1 <0>        -0.2243
      3 C3          2.3751    1.3326   -0.0135 C.ar      1 <0>         0.4303
      4 N1          2.3525    0.0077   -0.0208 N.ar      1 <0>        -0.4972
      5 C4          1.2167   -0.6648   -0.0136 C.ar      1 <0>         0.2187
      6 C5          0.0021   -0.0041    0.0020 C.ar      1 <0>        -0.2035
      7 Cl1         1.2482   -2.4005   -0.0238 Cl        1 <0>        -0.0260
      8 N2          3.5934    2.0004   -0.0215 N.pl3     1 <0>        -0.5680
      9 N3          4.7908    1.2732   -0.0368 N.2       1 <0>        -0.1816
     10 C6          5.9292    1.8972   -0.0444 C.2       1 <0>         0.0809
     11 C7          7.1889    1.1321   -0.0605 C.ar      1 <0>        -0.0720
     12 C8          8.4157    1.7995   -0.0629 C.ar      1 <0>        -0.0498
     13 C9          9.5914    1.0771   -0.0780 C.ar      1 <0>        -0.1070
     14 C10         9.5595   -0.3076   -0.0910 C.ar      1 <0>        -0.0607
     15 C11         8.3512   -0.9789   -0.0888 C.ar      1 <0>        -0.1454
     16 C12         7.1621   -0.2690   -0.0678 C.ar      1 <0>         0.1619
     17 O1          5.9744   -0.9284   -0.0594 O.3       1 <0>        -0.4668
     18 Br1        11.2523    1.9810   -0.0819 Br        1 <0>        -0.0421
     19 H1         -0.9523    1.9229    0.0259 H         1 <0>         0.1493
     20 H2          1.2113    3.1407    0.0070 H         1 <0>         0.1411
     21 H3         -0.9225   -0.5622    0.0082 H         1 <0>         0.1460
     22 H4          3.6150    2.9702   -0.0165 H         1 <0>         0.3983
     23 H5          5.9532    2.9769   -0.0388 H         1 <0>         0.1206
     24 H6          8.4443    2.8791   -0.0532 H         1 <0>         0.1412
     25 H7         10.4839   -0.8659   -0.1032 H         1 <0>         0.1396
     26 H8          8.3343   -2.0587   -0.0993 H         1 <0>         0.1428
     27 H9          5.6217   -1.1145   -0.9404 H         1 <0>         0.3960
@<TRIPOS>BOND
     1    1    6 ar
     2    1    2 ar
     3    1   19 1
     4    2    3 ar
     5    2   20 1
     6    3    4 ar
     7    3    8 1
     8    4    5 ar
     9    5    6 ar
    10    5    7 1
    11    6   21 1
    12    8    9 1
    13    8   22 1
    14    9   10 2
    15   10   11 1
    16   10   23 1
    17   11   16 ar
    18   11   12 ar
    19   12   13 ar
    20   12   24 1
    21   13   14 ar
    22   13   18 1
    23   14   15 ar
    24   14   25 1
    25   15   16 ar
    26   15   26 1
    27   16   17 1
    28   17   27 1
@<TRIPOS>MOLECULE
ZINC66128180
   42    44     0     0     0
SMALL
USER_CHARGES

@<TRIPOS>ATOM
      1 C1          0.2394    1.2800    0.1617 C.3       1 <0>        -0.1612
      2 C2          0.0532   -0.2365    0.0814 C.3       1 <0>        -0.1174
      3 C3         -1.4399   -0.5644    0.0190 C.3       1 <0>         0.0802
      4 H1         -1.8957   -0.0260   -0.8120 H         1 <0>         0.0732
      5 C4         -1.6234   -2.0694   -0.1866 C.3       1 <0>        -0.1797
      6 O1         -2.0656   -0.1709    1.2420 O.3       1 <0>        -0.3023
      7 C5         -3.3910    0.1246    1.1897 C.ar      1 <0>         0.1590
      8 C6         -4.0932   -0.0387    0.0042 C.ar      1 <0>        -0.2141
      9 C7         -5.4404    0.2618   -0.0462 C.ar      1 <0>        -0.0702
     10 C8         -6.0894    0.7251    1.0836 C.ar      1 <0>        -0.1620
     11 C9         -5.3920    0.8891    2.2659 C.ar      1 <0>        -0.0527
     12 C10        -4.0455    0.5844    2.3230 C.ar      1 <0>        -0.1686
     13 C11        -3.2872    0.7574    3.6138 C.3       1 <0>         0.4370
     14 H2         -3.2558   -0.1943    4.1442 H         1 <0>         0.1128
     15 N1         -3.9678    1.7560    4.4472 N.pl3     1 <0>        -0.7492
     16 C12        -3.8328    3.0996    4.1171 C.ar      1 <0>         0.2343
     17 C13        -4.8243    4.0253    4.3926 C.ar      1 <0>        -0.1838
     18 C14        -4.6410    5.3487    4.0398 C.ar      1 <0>        -0.0546
     19 C15        -3.4735    5.7558    3.4131 C.ar      1 <0>        -0.1715
     20 C16        -2.4750    4.8461    3.1325 C.ar      1 <0>        -0.0232
     21 C17        -2.6460    3.5095    3.4837 C.ar      1 <0>        -0.1980
     22 C18        -1.6084    2.4974    3.2150 C.2       1 <0>         0.5753
     23 O2         -0.4833    2.8380    2.9037 O.2       1 <0>        -0.5343
     24 N2         -1.9223    1.1929    3.3190 N.am      1 <0>        -0.7176
     25 H3          1.3032    1.5136    0.2062 H         1 <0>         0.0564
     26 H4         -0.1986    1.7470   -0.7205 H         1 <0>         0.0465
     27 H5         -0.2537    1.6598    1.0565 H         1 <0>         0.0776
     28 H6          0.5464   -0.6162   -0.8134 H         1 <0>         0.0799
     29 H7          0.4912   -0.7035    0.9636 H         1 <0>         0.0730
     30 H8         -1.1676   -2.6078    0.6444 H         1 <0>         0.0681
     31 H9         -2.6871   -2.3030   -0.2310 H         1 <0>         0.0620
     32 H10        -1.1462   -2.3695   -1.1194 H         1 <0>         0.0725
     33 H11        -3.5867   -0.4001   -0.8786 H         1 <0>         0.1306
     34 H12        -5.9873    0.1353   -0.9689 H         1 <0>         0.1249
     35 H13        -7.1428    0.9596    1.0422 H         1 <0>         0.1246
     36 H14        -5.9010    1.2513    3.1468 H         1 <0>         0.1297
     37 H15        -4.5003    1.4842    5.2111 H         1 <0>         0.4140
     38 H16        -5.7365    3.7148    4.8803 H         1 <0>         0.1285
     39 H17        -5.4137    6.0720    4.2544 H         1 <0>         0.1276
     40 H18        -3.3447    6.7933    3.1421 H         1 <0>         0.1271
     41 H19        -1.5675    5.1682    2.6436 H         1 <0>         0.1334
     42 H20        -1.2268    0.5282    3.1945 H         1 <0>         0.4122
@<TRIPOS>BOND
     1    1    2 1
     2    1   25 1
     3    1   26 1
     4    1   27 1
     5    2    3 1
     6    2   28 1
     7    2   29 1
     8    3    4 1
     9    3    5 1
    10    3    6 1
    11    5   30 1
    12    5   31 1
    13    5   32 1
    14    6    7 1
    15    7   12 ar
    16    7    8 ar
    17    8    9 ar
    18    8   33 1
    19    9   10 ar
    20    9   34 1
    21   10   11 ar
    22   10   35 1
    23   11   12 ar
    24   11   36 1
    25   12   13 1
    26   13   14 1
    27   13   24 1
    28   13   15 1
    29   15   16 1
    30   15   37 1
    31   16   21 ar
    32   16   17 ar
    33   17   18 ar
    34   17   38 1
    35   18   19 ar
    36   18   39 1
    37   19   20 ar
    38   19   40 1
    39   20   21 ar
    40   20   41 1
    41   21   22 1
    42   22   23 2
    43   22   24 am
    44   24   42 1
@<TRIPOS>MOLECULE
ZINC25503731
   47    49     0     0     0
SMALL
USER_CHARGES
(2R)-2-(4-acetylpiperazin-1-yl)-N-(3-cyano-5,6-dihydro-4H-cyclopenta[d]thiophen-2-yl)propanamide
@<TRIPOS>ATOM
      1 C1         -0.7162    1.6154    1.2742 C.3       1 <0>        -0.1869
      2 C2         -0.0068    1.1069    0.0176 C.3       1 <0>         0.0219
      3 H1         -0.0007    0.0074   -0.0135 H         1 <0>         0.1721
      4 C3          1.4084    1.6244   -0.0044 C.2       1 <0>         0.5044
      5 O1          1.7851    2.3213   -0.9227 O.2       1 <0>        -0.4950
      6 N1          2.2555    1.3126    0.9965 N.am      1 <0>        -0.6056
      7 C4          3.5590    1.7892    0.9762 C.2       1 <0>         0.0500
      8 C5          4.5653    1.5800    1.9022 C.2       1 <0>        -0.0783
      9 C6          5.8640    2.1994    1.6434 C.2       1 <0>        -0.0958
     10 C7          5.9368    2.9212    0.5097 C.2       1 <0>        -0.2093
     11 S1          4.3222    2.7832   -0.2175 S.3       1 <0>         0.2888
     12 C8          7.2995    3.5284    0.3144 C.3       1 <0>        -0.0425
     13 C9          7.9654    3.4463    1.7057 C.3       1 <0>        -0.1130
     14 C10         7.2251    2.2513    2.3387 C.3       1 <0>        -0.0613
     15 C11         4.3427    0.7856    3.0727 C.1       1 <0>         0.2535
     16 N2          4.1660    0.1554    4.0012 N.1       1 <0>        -0.4027
     17 N3         -0.7209    1.5832   -1.1745 N.4       1 <0>        -0.3880
     18 C12        -0.7711    3.0510   -1.2067 C.3       1 <0>        -0.0369
     19 C13        -1.3593    3.5095   -2.5453 C.3       1 <0>         0.0914
     20 N4         -2.6534    2.8385   -2.7413 N.am      1 <0>        -0.6378
     21 C14        -2.7095    1.3767   -2.5887 C.3       1 <0>         0.0849
     22 C15        -2.0681    1.0022   -1.2483 C.3       1 <0>        -0.0207
     23 C16        -3.7586    3.5445   -3.0520 C.2       1 <0>         0.5208
     24 O2         -3.7176    4.7564   -3.0746 O.2       1 <0>        -0.5131
     25 C17        -5.0454    2.8280   -3.3712 C.3       1 <0>        -0.1831
     26 H2         -1.7492    1.2377    1.2903 H         1 <0>         0.1027
     27 H3         -0.7280    2.7153    1.2689 H         1 <0>         0.0939
     28 H4         -0.1814    1.2588    2.1668 H         1 <0>         0.1106
     29 H5          1.9138    0.6805    1.8294 H         1 <0>         0.4565
     30 H6          7.8539    2.9503   -0.4395 H         1 <0>         0.0927
     31 H7          7.1920    4.5685   -0.0273 H         1 <0>         0.0862
     32 H8          9.0449    3.2724    1.5858 H         1 <0>         0.0919
     33 H9          7.8039    4.3909    2.2458 H         1 <0>         0.0826
     34 H10         7.0795    2.3956    3.4194 H         1 <0>         0.0791
     35 H11         7.7624    1.3075    2.1639 H         1 <0>         0.0893
     36 H12        -1.4035    3.4144   -0.3833 H         1 <0>         0.1297
     37 H13         0.2457    3.4552   -1.0940 H         1 <0>         0.1632
     38 H14        -1.5008    4.6002   -2.5292 H         1 <0>         0.1369
     39 H15        -0.6703    3.2411   -3.3597 H         1 <0>         0.0984
     40 H16        -3.7584    1.0460   -2.6081 H         1 <0>         0.1357
     41 H17        -2.1596    0.9005   -3.4138 H         1 <0>         0.1011
     42 H18        -2.0002   -0.0926   -1.1661 H         1 <0>         0.1486
     43 H19        -2.6822    1.3944   -0.4243 H         1 <0>         0.1360
     44 H20        -5.8292    3.5656   -3.5981 H         1 <0>         0.1053
     45 H21        -5.3518    2.2217   -2.5060 H         1 <0>         0.0936
     46 H22        -4.8943    2.1737   -4.2424 H         1 <0>         0.0979
     47 H23        -0.1630    1.2480   -2.0613 H         1 <0>         0.4505
@<TRIPOS>BOND
     1    1    2 1
     2    1   26 1
     3    1   27 1
     4    1   28 1
     5    2    3 1
     6    2    4 1
     7    2   17 1
     8    4    5 2
     9    4    6 am
    10    6    7 1
    11    6   29 1
    12    7   11 1
    13    7    8 2
    14    8    9 1
    15    8   15 1
    16    9   14 1
    17    9   10 2
    18   10   11 1
    19   10   12 1
    20   12   13 1
    21   12   30 1
    22   12   31 1
    23   13   14 1
    24   13   32 1
    25   13   33 1
    26   14   34 1
    27   14   35 1
    28   15   16 3
    29   17   22 1
    30   17   18 1
    31   17   47 1
    32   18   19 1
    33   18   36 1
    34   18   37 1
    35   19   20 1
    36   19   38 1
    37   19   39 1
    38   20   21 1
    39   20   23 am
    40   21   22 1
    41   21   40 1
    42   21   41 1
    43   22   42 1
    44   22   43 1
    45   23   24 2
    46   23   25 1
    47   25   44 1
    48   25   45 1
    49   25   46 1
@<TRIPOS>MOLECULE
ZINC38673366
   41    42     0     0     0
SMALL
USER_CHARGES

@<TRIPOS>ATOM
      1 C1          0.9690    2.2271    0.1226 C.3       1 <0>        -0.1222
      2 C2          0.6350    0.7589    0.0607 C.2       1 <0>         0.1810
      3 C3          0.4114    0.0113   -1.1094 C.2       1 <0>        -0.8523
      4 C4          0.1420   -1.2585   -0.7502 C.2       1 <0>         0.2175
      5 O1          0.1889   -1.3295    0.5889 O.3       1 <0>        -0.0685
      6 N1          0.5085   -0.0408    1.0817 N.2       1 <0>        -0.2980
      7 C5         -0.1598   -2.3992   -1.6876 C.3       1 <0>        -0.1418
      8 S1          0.4725    0.6287   -2.7586 S.o2      1 <0>         2.7270
      9 O2         -0.3261   -0.2420   -3.5481 O.2       1 <0>        -0.9413
     10 O3          0.2257    2.0258   -2.6786 O.2       1 <0>        -0.9295
     11 N2          2.0312    0.4531   -3.2897 N.pl3     1 <0>        -1.1081
     12 C6          2.6027   -0.8858   -3.4539 C.3       1 <0>         0.0990
     13 C7          3.8784   -0.7963   -4.2938 C.3       1 <0>         0.0863
     14 H1          4.5653   -0.0842   -3.8365 H         1 <0>         0.1526
     15 C8          3.5317   -0.3365   -5.6864 C.2       1 <0>        -0.1596
     16 C9          3.7161    0.9827   -6.0558 C.2       1 <0>        -0.1634
     17 C10         3.3941    1.3635   -7.3162 C.2       1 <0>        -0.1457
     18 S2          2.8100   -0.1667   -8.0265 S.3       1 <0>         0.1430
     19 C11         3.0397   -1.2115   -6.5972 C.2       1 <0>        -0.2001
     20 N3          4.5154   -2.1184   -4.3590 N.4       1 <0>        -0.3826
     21 C12         5.7127   -2.0437   -5.2068 C.3       1 <0>        -0.0492
     22 C13         4.8990   -2.5444   -3.0064 C.3       1 <0>        -0.0562
     23 H2          2.0507    2.3555    0.0853 H         1 <0>         0.0979
     24 H3          0.5129    2.7395   -0.7245 H         1 <0>         0.1194
     25 H4          0.5849    2.6483    1.0516 H         1 <0>         0.0969
     26 H5          0.7688   -2.9001   -1.9611 H         1 <0>         0.1045
     27 H6         -0.8239   -3.1090   -1.1943 H         1 <0>         0.1114
     28 H7         -0.6427   -2.0136   -2.5855 H         1 <0>         0.1371
     29 H8          2.5658    1.2368   -3.4920 H         1 <0>         0.4268
     30 H9          2.8406   -1.3018   -2.4749 H         1 <0>         0.0883
     31 H10         1.8810   -1.5297   -3.9566 H         1 <0>         0.1060
     32 H11         4.1104    1.6993   -5.3506 H         1 <0>         0.1452
     33 H12         3.4708    2.3394   -7.7723 H         1 <0>         0.1998
     34 H13         2.8379   -2.2667   -6.4866 H         1 <0>         0.1892
     35 H14         6.4131   -1.3234   -4.7839 H         1 <0>         0.1249
     36 H15         6.1854   -3.0247   -5.2552 H         1 <0>         0.1292
     37 H16         5.4281   -1.7276   -6.2104 H         1 <0>         0.1263
     38 H17         4.0020   -2.7142   -2.4109 H         1 <0>         0.1242
     39 H18         5.4757   -3.4674   -3.0661 H         1 <0>         0.1330
     40 H19         5.5039   -1.7676   -2.5387 H         1 <0>         0.1274
     41 H20         3.8672   -2.7852   -4.7504 H         1 <0>         0.4247
@<TRIPOS>BOND
     1    1    2 1
     2    1   23 1
     3    1   24 1
     4    1   25 1
     5    2    6 2
     6    2    3 1
     7    3    4 2
     8    3    8 1
     9    4    5 1
    10    4    7 1
    11    5    6 1
    12    7   26 1
    13    7   27 1
    14    7   28 1
    15    8    9 2
    16    8   10 2
    17    8   11 1
    18   11   12 1
    19   11   29 1
    20   12   13 1
    21   12   30 1
    22   12   31 1
    23   13   14 1
    24   13   15 1
    25   13   20 1
    26   15   19 2
    27   15   16 1
    28   16   17 2
    29   16   32 1
    30   17   18 1
    31   17   33 1
    32   18   19 1
    33   19   34 1
    34   20   21 1
    35   20   22 1
    36   20   41 1
    37   21   35 1
    38   21   36 1
    39   21   37 1
    40   22   38 1
    41   22   39 1
    42   22   40 1
@<TRIPOS>MOLECULE
ZINC49972714
   59    60     0     0     0
SMALL
USER_CHARGES

@<TRIPOS>ATOM
      1 C1         -0.3383    1.7461    0.4743 C.3       1 <0>        -0.1463
      2 C2         -0.0191    0.2763    0.1936 C.3       1 <0>         0.1423
      3 H1          0.6698    0.2064   -0.6482 H         1 <0>         0.0860
      4 C3         -1.3119   -0.4760   -0.1369 C.3       1 <0>        -0.1348
      5 C4         -1.0065   -1.9688   -0.2796 C.3       1 <0>        -0.1264
      6 C5         -0.4587   -2.5080    1.0438 C.3       1 <0>        -0.1315
      7 C6          0.8438   -1.7786    1.3877 C.3       1 <0>         0.1289
      8 H2          1.6040   -2.0183    0.6442 H         1 <0>         0.0941
      9 N1          0.5937   -0.3305    1.3831 N.am      1 <0>        -0.5885
     10 C7          0.9167    0.4260    2.4508 C.2       1 <0>         0.5067
     11 O1          0.4053    1.5157    2.5989 O.2       1 <0>        -0.5165
     12 C8          1.9133   -0.0822    3.4606 C.3       1 <0>        -0.0634
     13 N2          2.3710    1.0326    4.3006 N.4       1 <0>        -0.3809
     14 C9          3.1096    1.9967    3.4745 C.3       1 <0>        -0.0055
     15 C10         3.5705    3.1674    4.3455 C.3       1 <0>         0.0306
     16 N3          4.4297    2.6622    5.4256 N.3       1 <0>        -0.5218
     17 C11         3.7114    1.6771    6.2464 C.3       1 <0>         0.0209
     18 C12         3.2494    0.5186    5.3597 C.3       1 <0>         0.0029
     19 C13         4.9394    3.7645    6.2521 C.3       1 <0>         0.0336
     20 C14         6.0004    3.2428    7.1865 C.2       1 <0>         0.5143
     21 O2          6.3022    2.0683    7.1660 O.2       1 <0>        -0.5262
     22 N4          6.6139    4.0813    8.0449 N.am      1 <0>        -0.7227
     23 C15         7.6453    3.5741    8.9533 C.3       1 <0>         0.1376
     24 C16         8.9954    3.5578    8.2338 C.3       1 <0>        -0.1658
     25 C17         7.7333    4.4811   10.1824 C.3       1 <0>        -0.1645
     26 C18         1.3256   -2.2148    2.7728 C.3       1 <0>        -0.2071
     27 H3          0.5759    2.2695    0.7540 H         1 <0>         0.0626
     28 H4         -0.7597    2.2037   -0.4208 H         1 <0>         0.0613
     29 H5         -1.0587    1.8121    1.2896 H         1 <0>         0.0780
     30 H6         -2.0345   -0.3276    0.6656 H         1 <0>         0.0712
     31 H7         -1.7239   -0.0979   -1.0725 H         1 <0>         0.0846
     32 H8         -1.9204   -2.5033   -0.5390 H         1 <0>         0.0764
     33 H9         -0.2654   -2.1143   -1.0655 H         1 <0>         0.0697
     34 H10        -1.1893   -2.3404    1.8352 H         1 <0>         0.0716
     35 H11        -0.2634   -3.5761    0.9486 H         1 <0>         0.0866
     36 H12         1.4418   -0.8394    4.0870 H         1 <0>         0.1811
     37 H13         2.7659   -0.5197    2.9412 H         1 <0>         0.1647
     38 H14         3.9784    1.5073    3.0342 H         1 <0>         0.1350
     39 H15         2.4606    2.3675    2.6811 H         1 <0>         0.1393
     40 H16         4.1314    3.8757    3.7357 H         1 <0>         0.1240
     41 H17         2.7012    3.6654    4.7750 H         1 <0>         0.0640
     42 H18         4.3752    1.2980    7.0235 H         1 <0>         0.1410
     43 H19         2.8445    2.1505    6.7073 H         1 <0>         0.0575
     44 H20         2.7041   -0.2064    5.9640 H         1 <0>         0.1364
     45 H21         4.1175    0.0368    4.9098 H         1 <0>         0.1406
     46 H22         5.3679    4.5330    5.6086 H         1 <0>         0.1178
     47 H23         4.1218    4.1914    6.8328 H         1 <0>         0.0769
     48 H24         6.3725    5.0207    8.0613 H         1 <0>         0.4023
     49 H25         7.3881    2.5622    9.2662 H         1 <0>         0.0894
     50 H26         9.2526    4.5698    7.9209 H         1 <0>         0.0586
     51 H27         9.7628    3.1804    8.9096 H         1 <0>         0.0703
     52 H28         8.9327    2.9117    7.3582 H         1 <0>         0.0601
     53 H29         6.7714    4.4927   10.6950 H         1 <0>         0.0622
     54 H30         8.5007    4.1037   10.8582 H         1 <0>         0.0779
     55 H31         7.9905    5.4931    9.8694 H         1 <0>         0.0637
     56 H32         1.3295   -3.3033    2.8301 H         1 <0>         0.0978
     57 H33         2.3346   -1.8385    2.9417 H         1 <0>         0.0821
     58 H34         0.6560   -1.8133    3.5335 H         1 <0>         0.0745
     59 H35         1.5734    1.4889    4.7174 H         1 <0>         0.4251
@<TRIPOS>BOND
     1    1    2 1
     2    1   27 1
     3    1   28 1
     4    1   29 1
     5    2    3 1
     6    2    9 1
     7    2    4 1
     8    4    5 1
     9    4   30 1
    10    4   31 1
    11    5    6 1
    12    5   32 1
    13    5   33 1
    14    6    7 1
    15    6   34 1
    16    6   35 1
    17    7    8 1
    18    7    9 1
    19    7   26 1
    20    9   10 am
    21   10   11 2
    22   10   12 1
    23   12   13 1
    24   12   36 1
    25   12   37 1
    26   13   18 1
    27   13   14 1
    28   13   59 1
    29   14   15 1
    30   14   38 1
    31   14   39 1
    32   15   16 1
    33   15   40 1
    34   15   41 1
    35   16   17 1
    36   16   19 1
    37   17   18 1
    38   17   42 1
    39   17   43 1
    40   18   44 1
    41   18   45 1
    42   19   20 1
    43   19   46 1
    44   19   47 1
    45   20   21 2
    46   20   22 am
    47   22   23 1
    48   22   48 1
    49   23   24 1
    50   23   25 1
    51   23   49 1
    52   24   50 1
    53   24   51 1
    54   24   52 1
    55   25   53 1
    56   25   54 1
    57   25   55 1
    58   26   56 1
    59   26   57 1
    60   26   58 1
@<TRIPOS>MOLECULE
ZINC39572585
   36    38     0     0     0
SMALL
USER_CHARGES

@<TRIPOS>ATOM
      1 C1         -0.0188    1.5357    0.0105 C.3       1 <0>        -0.1448
      2 C2          1.4678    1.9597   -0.0014 C.3       1 <0>        -0.1459
      3 C3          2.1905    0.7049    0.5496 C.3       1 <0>        -0.0049
      4 N1          1.4211   -0.4185   -0.0440 N.4       1 <0>        -0.3922
      5 C4          0.0021   -0.0041    0.0020 C.3       1 <0>        -0.0164
      6 C5          1.6177   -1.6408    0.7468 C.3       1 <0>         0.0160
      7 C6          0.9215   -2.8139    0.0540 C.3       1 <0>        -0.2242
      8 S1          1.1643   -4.3232    1.0305 S.3       1 <0>         0.2333
      9 C7          0.3643   -5.4934    0.1666 C.2       1 <0>        -0.1433
     10 C8          0.2423   -6.8526    0.4981 C.2       1 <0>        -0.0969
     11 C9         -0.6218   -7.6490   -0.2205 C.2       1 <0>         0.3095
     12 N2         -1.1932   -8.7987    0.1202 N.2       1 <0>        -0.4876
     13 C10        -2.2848   -9.1859   -0.5546 C.2       1 <0>         0.6609
     14 O1         -2.6511  -10.3440   -0.4697 O.2       1 <0>        -0.4528
     15 N3         -2.9885   -8.3340   -1.3225 N.am      1 <0>        -0.6897
     16 C11        -2.4381   -7.1772   -1.7707 C.2       1 <0>         0.5534
     17 O2         -3.1065   -6.3134   -2.2973 O.2       1 <0>        -0.4497
     18 C12        -0.9557   -7.0246   -1.5786 C.3       1 <0>        -0.1660
     19 H1         -0.3926   -7.4834   -2.3913 H         1 <0>         0.2079
     20 S2         -0.4705   -5.2900   -1.2796 S.3       1 <0>         0.1500
     21 C13         1.0096   -7.4057    1.5733 C.1       1 <0>         0.2500
     22 N4          1.6182   -7.8445    2.4262 N.1       1 <0>        -0.3667
     23 H2         -0.5096    1.9024    0.9120 H         1 <0>         0.1058
     24 H3         -0.5267    1.9121   -0.8775 H         1 <0>         0.1070
     25 H4          1.7979    2.1803   -1.0166 H         1 <0>         0.0999
     26 H5          1.6298    2.8165    0.6527 H         1 <0>         0.1194
     27 H6          3.2275    0.6801    0.2150 H         1 <0>         0.1400
     28 H7          2.1355    0.6761    1.6379 H         1 <0>         0.1376
     29 H8         -0.4673   -0.3868    0.9083 H         1 <0>         0.1336
     30 H9         -0.5226   -0.3777   -0.8773 H         1 <0>         0.1344
     31 H10         2.6839   -1.8504    0.8326 H         1 <0>         0.1478
     32 H11         1.1935   -1.5023    1.7412 H         1 <0>         0.1463
     33 H12        -0.1448   -2.6043   -0.0318 H         1 <0>         0.1302
     34 H13         1.3457   -2.9523   -0.9404 H         1 <0>         0.1326
     35 H14        -3.9038   -8.5504   -1.5599 H         1 <0>         0.4354
     36 H15         1.7084   -0.5705   -0.9992 H         1 <0>         0.4301
@<TRIPOS>BOND
     1    1    5 1
     2    1    2 1
     3    1   23 1
     4    1   24 1
     5    2    3 1
     6    2   25 1
     7    2   26 1
     8    3    4 1
     9    3   27 1
    10    3   28 1
    11    4    5 1
    12    4    6 1
    13    4   36 1
    14    5   29 1
    15    5   30 1
    16    6    7 1
    17    6   31 1
    18    6   32 1
    19    7    8 1
    20    7   33 1
    21    7   34 1
    22    8    9 1
    23    9   20 1
    24    9   10 2
    25   10   11 1
    26   10   21 1
    27   11   18 1
    28   11   12 2
    29   12   13 1
    30   13   14 2
    31   13   15 am
    32   15   16 am
    33   15   35 1
    34   16   17 2
    35   16   18 1
    36   18   19 1
    37   18   20 1
    38   21   22 3
@<TRIPOS>MOLECULE
ZINC41845305
   59    60     0     0     0
SMALL
USER_CHARGES

@<TRIPOS>ATOM
      1 C1          0.2210    1.5366   -0.1657 C.3       1 <0>        -0.1291
      2 C2         -0.0251    0.0379    0.0199 C.3       1 <0>        -0.0860
      3 C3          0.8163   -0.4761    1.1898 C.3       1 <0>        -0.1548
      4 C4         -1.5073   -0.2029    0.3132 C.3       1 <0>        -0.1584
      5 C5          0.3634   -0.6946   -1.2384 C.2       1 <0>         0.5278
      6 O1          0.9199   -0.1014   -2.1381 O.2       1 <0>        -0.5345
      7 N1          0.0926   -2.0089   -1.3640 N.am      1 <0>        -0.6138
      8 C6         -0.4698   -2.7681   -0.2389 C.3       1 <0>         0.0836
      9 C7          0.4137   -3.9923    0.0206 C.3       1 <0>        -0.1179
     10 C8          0.5552   -4.7978   -1.2730 C.3       1 <0>        -0.1064
     11 C9          1.2281   -3.9344   -2.3426 C.3       1 <0>        -0.1230
     12 C10         0.3485   -2.7082   -2.6306 C.3       1 <0>         0.1108
     13 C11         1.3959   -6.0212   -1.0133 C.2       1 <0>         0.5231
     14 O2          1.8383   -6.2285    0.0967 O.2       1 <0>        -0.5287
     15 N2          1.6562   -6.8850   -2.0146 N.am      1 <0>        -0.7359
     16 C12         2.4735   -8.0743   -1.7622 C.3       1 <0>         0.1207
     17 C13         2.6151   -8.8797   -3.0553 C.3       1 <0>         0.0437
     18 N3          3.4346  -10.0723   -2.8021 N.3       1 <0>        -0.5357
     19 C14         4.8184   -9.7007   -2.4746 C.3       1 <0>         0.0181
     20 C15         5.6220  -10.9644   -2.1603 C.3       1 <0>        -0.0025
     21 N4          5.5999  -11.8609   -3.3236 N.4       1 <0>        -0.3887
     22 C16         4.2136  -12.2428   -3.6233 C.3       1 <0>        -0.0026
     23 C17         3.3982  -10.9897   -3.9498 C.3       1 <0>         0.0265
     24 C18         6.3865  -13.0658   -3.0280 C.3       1 <0>        -0.0460
     25 H1          1.2770    1.7082   -0.3746 H         1 <0>         0.0639
     26 H2         -0.3785    1.9028   -0.9991 H         1 <0>         0.0613
     27 H3         -0.0600    2.0664    0.7445 H         1 <0>         0.0648
     28 H4          0.3939   -0.1151    2.1275 H         1 <0>         0.0734
     29 H5          0.8154   -1.5661    1.1867 H         1 <0>         0.0683
     30 H6          1.8392   -0.1133    1.0886 H         1 <0>         0.0645
     31 H7         -2.0930    0.0015   -0.5831 H         1 <0>         0.0614
     32 H8         -1.6542   -1.2401    0.6144 H         1 <0>         0.0734
     33 H9         -1.8307    0.4582    1.1172 H         1 <0>         0.0717
     34 H10        -0.4932   -2.1392    0.6510 H         1 <0>         0.1175
     35 H11        -1.4806   -3.0928   -0.4861 H         1 <0>         0.0732
     36 H12         1.3984   -3.6660    0.3554 H         1 <0>         0.0770
     37 H13        -0.0443   -4.6154    0.7888 H         1 <0>         0.0870
     38 H14        -0.4318   -5.1028   -1.6207 H         1 <0>         0.1034
     39 H15         2.2050   -3.6085   -1.9854 H         1 <0>         0.0743
     40 H16         1.3497   -4.5161   -3.2563 H         1 <0>         0.0767
     41 H17        -0.5969   -3.0281   -3.0688 H         1 <0>         0.0716
     42 H18         0.8652   -2.0397   -3.3192 H         1 <0>         0.0983
     43 H19         1.3024   -6.7192   -2.9025 H         1 <0>         0.4023
     44 H20         3.4605   -7.7697   -1.4139 H         1 <0>         0.0669
     45 H21         1.9938   -8.6900   -1.0013 H         1 <0>         0.0809
     46 H22         1.6282   -9.1843   -3.4035 H         1 <0>         0.0966
     47 H23         3.0948   -8.2640   -3.8161 H         1 <0>         0.0548
     48 H24         5.2675   -9.1859   -3.3240 H         1 <0>         0.0634
     49 H25         4.8222   -9.0419   -1.6062 H         1 <0>         0.1268
     50 H26         6.6523  -10.6922   -1.9310 H         1 <0>         0.1374
     51 H27         5.1807  -11.4716   -1.3024 H         1 <0>         0.1392
     52 H28         4.1997  -12.9184   -4.4786 H         1 <0>         0.1374
     53 H29         3.7795  -12.7435   -2.7579 H         1 <0>         0.1388
     54 H30         2.3660  -11.2714   -4.1577 H         1 <0>         0.1254
     55 H31         3.8239  -10.4962   -4.8235 H         1 <0>         0.0626
     56 H32         5.9573  -13.5776   -2.1666 H         1 <0>         0.1237
     57 H33         6.3702  -13.7312   -3.8912 H         1 <0>         0.1248
     58 H34         7.4156  -12.7827   -2.8068 H         1 <0>         0.1248
     59 H35         5.9978  -11.3871   -4.1207 H         1 <0>         0.4225
@<TRIPOS>BOND
     1    1    2 1
     2    1   25 1
     3    1   26 1
     4    1   27 1
     5    2    3 1
     6    2    4 1
     7    2    5 1
     8    3   28 1
     9    3   29 1
    10    3   30 1
    11    4   31 1
    12    4   32 1
    13    4   33 1
    14    5    6 2
    15    5    7 am
    16    7   12 1
    17    7    8 1
    18    8    9 1
    19    8   34 1
    20    8   35 1
    21    9   10 1
    22    9   36 1
    23    9   37 1
    24   10   11 1
    25   10   13 1
    26   10   38 1
    27   11   12 1
    28   11   39 1
    29   11   40 1
    30   12   41 1
    31   12   42 1
    32   13   14 2
    33   13   15 am
    34   15   16 1
    35   15   43 1
    36   16   17 1
    37   16   44 1
    38   16   45 1
    39   17   18 1
    40   17   46 1
    41   17   47 1
    42   18   23 1
    43   18   19 1
    44   19   20 1
    45   19   48 1
    46   19   49 1
    47   20   21 1
    48   20   50 1
    49   20   51 1
    50   21   22 1
    51   21   24 1
    52   21   59 1
    53   22   23 1
    54   22   52 1
    55   22   53 1
    56   23   54 1
    57   23   55 1
    58   24   56 1
    59   24   57 1
    60   24   58 1
@<TRIPOS>MOLECULE
ZINC11865298
   54    59     0     0     0
SMALL
USER_CHARGES
[3-hydroxy-5-(hydroxymethyl)-2-methyl-4-pyridyl]-dimethyl-BLAHone
@<TRIPOS>ATOM
      1 C1          1.5250   -1.1766   -4.3678 C.3       1 <0>        -0.1232
      2 C2          2.2777   -0.3198   -3.3827 C.ar      1 <0>        -0.0294
      3 C3          3.0743   -0.9183   -2.4195 C.ar      1 <0>        -0.1315
      4 C4          3.7658   -0.1431   -1.5136 C.ar      1 <0>        -0.0547
      5 C5          3.6627    1.2460   -1.5682 C.ar      1 <0>        -0.1391
      6 C6          4.3899    2.0979   -0.6128 C.ar      1 <0>         0.0712
      7 C7          4.2452    3.4978   -0.7208 C.ar      1 <0>        -0.1914
      8 C8          4.9316    4.3281    0.1808 C.ar      1 <0>         0.2492
      9 N1          5.7035    3.7969    1.1168 N.ar      1 <0>        -0.4372
     10 C9          5.8627    2.4852    1.2463 C.ar      1 <0>         0.1447
     11 C10         5.2142    1.5824    0.3888 C.ar      1 <0>         0.0340
     12 O1          5.5529    0.3261    0.7461 O.3       1 <0>        -0.1822
     13 C11         6.3967    0.3211    1.8002 C.ar      1 <0>         0.0990
     14 C12         6.6436    1.6488    2.1782 C.ar      1 <0>        -0.1273
     15 C13         7.4882    1.9285    3.2482 C.ar      1 <0>        -0.0363
     16 C14         8.0833    0.8930    3.9374 C.ar      1 <0>        -0.1366
     17 C15         7.8412   -0.4203    3.5661 C.ar      1 <0>        -0.0633
     18 C16         7.0056   -0.7088    2.5077 C.ar      1 <0>        -0.1151
     19 C17         4.7921    5.7995    0.0844 C.ar      1 <0>        -0.0094
     20 C18         5.6760    6.5561   -0.6912 C.ar      1 <0>        -0.1035
     21 C19         5.5074    7.9237   -0.7578 C.ar      1 <0>         0.1261
     22 N2          4.5362    8.5224   -0.0952 N.ar      1 <0>        -0.4597
     23 C20         3.6824    7.8527    0.6527 C.ar      1 <0>         0.1161
     24 C21         3.7732    6.4741    0.7731 C.ar      1 <0>         0.0911
     25 O2          2.8903    5.7888    1.5444 O.3       1 <0>        -0.4828
     26 C22         2.5941    8.5939    1.3856 C.3       1 <0>        -0.1032
     27 C23         6.7937    5.8864   -1.4483 C.3       1 <0>         0.1241
     28 O3          7.5473    6.8726   -2.1564 O.3       1 <0>        -0.5625
     29 C24         3.3789    4.0317   -1.7752 C.2       1 <0>         0.5372
     30 O4          3.2360    5.2340   -1.8909 O.2       1 <0>        -0.4143
     31 O5          2.7423    3.1982   -2.6149 O.3       1 <0>        -0.2649
     32 C25         2.8569    1.8533   -2.5430 C.ar      1 <0>         0.1508
     33 C26         2.1676    1.0533   -3.4469 C.ar      1 <0>        -0.0959
     34 C27         1.3020    1.6887   -4.5043 C.3       1 <0>        -0.1157
     35 H1          2.1452   -1.3489   -5.2475 H         1 <0>         0.0822
     36 H2          1.2784   -2.1318   -3.9043 H         1 <0>         0.0765
     37 H3          0.6072   -0.6688   -4.6641 H         1 <0>         0.0779
     38 H4          3.1532   -1.9947   -2.3784 H         1 <0>         0.1401
     39 H5          4.3863   -0.6107   -0.7634 H         1 <0>         0.1433
     40 H6          7.6770    2.9518    3.5372 H         1 <0>         0.1392
     41 H7          8.7392    1.1057    4.7687 H         1 <0>         0.1409
     42 H8          8.3112   -1.2254    4.1112 H         1 <0>         0.1457
     43 H9          6.8244   -1.7361    2.2281 H         1 <0>         0.1432
     44 H10         6.1838    8.5141   -1.3581 H         1 <0>         0.1734
     45 H11         3.1755    5.6738    2.4612 H         1 <0>         0.3915
     46 H12         2.9535    8.8843    2.3728 H         1 <0>         0.0789
     47 H13         2.3189    9.4855    0.8223 H         1 <0>         0.0820
     48 H14         1.7226    7.9478    1.4918 H         1 <0>         0.0815
     49 H15         7.4457    5.3649   -0.7475 H         1 <0>         0.0638
     50 H16         6.3753    5.1711   -2.1564 H         1 <0>         0.0559
     51 H17         8.2849    6.5121   -2.6673 H         1 <0>         0.3884
     52 H18         0.2885    1.8072   -4.1212 H         1 <0>         0.0782
     53 H19         1.7077    2.6657   -4.7670 H         1 <0>         0.0757
     54 H20         1.2839    1.0529   -5.3894 H         1 <0>         0.0774
@<TRIPOS>BOND
     1    1    2 1
     2    1   35 1
     3    1   36 1
     4    1   37 1
     5    2   33 ar
     6    2    3 ar
     7    3    4 ar
     8    3   38 1
     9    4    5 ar
    10    4   39 1
    11    5   32 ar
    12    5    6 1
    13    6   11 ar
    14    6    7 ar
    15    7    8 ar
    16    7   29 1
    17    8    9 ar
    18    8   19 1
    19    9   10 ar
    20   10   14 1
    21   10   11 ar
    22   11   12 1
    23   12   13 1
    24   13   18 ar
    25   13   14 ar
    26   14   15 ar
    27   15   16 ar
    28   15   40 1
    29   16   17 ar
    30   16   41 1
    31   17   18 ar
    32   17   42 1
    33   18   43 1
    34   19   24 ar
    35   19   20 ar
    36   20   21 ar
    37   20   27 1
    38   21   22 ar
    39   21   44 1
    40   22   23 ar
    41   23   24 ar
    42   23   26 1
    43   24   25 1
    44   25   45 1
    45   26   46 1
    46   26   47 1
    47   26   48 1
    48   27   28 1
    49   27   49 1
    50   27   50 1
    51   28   51 1
    52   29   30 2
    53   29   31 1
    54   31   32 1
    55   32   33 ar
    56   33   34 1
    57   34   52 1
    58   34   53 1
    59   34   54 1
@<TRIPOS>MOLECULE
ZINC13943230
   44    47     0     0     0
SMALL
USER_CHARGES
(5E)-5-[(5-bromo-1H-indol-3-yl)methylene]-1-(4-ethylphenyl)hexahydropyrimidine-2,4,6-trione
@<TRIPOS>ATOM
      1 C1         11.2722   -8.5274   -0.1648 C.3       1 <0>        -0.1483
      2 C2          9.9247   -8.4991   -0.8888 C.3       1 <0>        -0.0884
      3 C3          9.3141   -7.1274   -0.7603 C.ar      1 <0>        -0.0638
      4 C4          9.5840   -6.1601   -1.7108 C.ar      1 <0>        -0.1083
      5 C5          9.0261   -4.9019   -1.5955 C.ar      1 <0>        -0.0873
      6 C6          8.1933   -4.6089   -0.5240 C.ar      1 <0>         0.1186
      7 C7          7.9280   -5.5807    0.4314 C.ar      1 <0>        -0.0875
      8 C8          8.4853   -6.8385    0.3083 C.ar      1 <0>        -0.1087
      9 N1          7.6262   -3.3330   -0.4039 N.am      1 <0>        -0.5176
     10 C9          6.4166   -3.0952   -0.9517 C.2       1 <0>         0.5698
     11 O1          5.8162   -3.9717   -1.5449 O.2       1 <0>        -0.4745
     12 C10         5.8418   -1.7462   -0.8119 C.2       1 <0>        -0.3164
     13 C11         4.6016   -1.4278   -1.3493 C.2       1 <0>         0.1897
     14 C12         3.9913   -0.1971   -1.0328 C.2       1 <0>        -0.2366
     15 C13         3.8519    0.3636    0.2253 C.2       1 <0>         0.1969
     16 N2          3.2151    1.5441    0.1239 N.pl3     1 <0>        -0.5623
     17 H1          3.0029    2.1218    0.8737 H         1 <0>         0.4260
     18 C14         2.9039    1.8217   -1.1930 C.ar      1 <0>         0.0900
     19 C15         3.3702    0.7548   -1.9764 C.ar      1 <0>        -0.0543
     20 C16         3.1903    0.7686   -3.3556 C.ar      1 <0>        -0.0528
     21 C17         2.5509    1.8368   -3.9502 C.ar      1 <0>        -0.0975
     22 C18         2.0895    2.8928   -3.1778 C.ar      1 <0>        -0.0802
     23 C19         2.2621    2.8902   -1.8103 C.ar      1 <0>        -0.1049
     24 Br1         2.3030    1.8619   -5.8248 Br        1 <0>        -0.0436
     25 C20         6.6428   -0.7477   -0.0823 C.2       1 <0>         0.5727
     26 O2          6.2367    0.3893    0.0693 O.2       1 <0>        -0.4865
     27 N3          7.8361   -1.1294    0.4177 N.am      1 <0>        -0.6628
     28 C21         8.2983   -2.3767    0.2522 C.2       1 <0>         0.7110
     29 O3          9.3839   -2.6554    0.7222 O.2       1 <0>        -0.5152
     30 H2         11.7139   -9.5196   -0.2578 H         1 <0>         0.0601
     31 H3         11.9395   -7.7895   -0.6101 H         1 <0>         0.0571
     32 H4         11.1233   -8.2934    0.8893 H         1 <0>         0.0569
     33 H5          9.2574   -9.2371   -0.4436 H         1 <0>         0.0753
     34 H6         10.0737   -8.7332   -1.9429 H         1 <0>         0.0754
     35 H7         10.2319   -6.3886   -2.5441 H         1 <0>         0.1318
     36 H8          9.2379   -4.1466   -2.3378 H         1 <0>         0.1259
     37 H9          7.2838   -5.3545    1.2682 H         1 <0>         0.1255
     38 H10         8.2766   -7.5959    1.0493 H         1 <0>         0.1316
     39 H11         4.1047   -2.1230   -2.0097 H         1 <0>         0.1554
     40 H12         4.2008   -0.0789    1.1466 H         1 <0>         0.1818
     41 H13         3.5491   -0.0529   -3.9579 H         1 <0>         0.1365
     42 H14         1.5945    3.7268   -3.6529 H         1 <0>         0.1400
     43 H15         1.8994    3.7176   -1.2184 H         1 <0>         0.1343
     44 H16         8.3742   -0.4852    0.9040 H         1 <0>         0.4355
@<TRIPOS>BOND
     1    1    2 1
     2    1   30 1
     3    1   31 1
     4    1   32 1
     5    2    3 1
     6    2   33 1
     7    2   34 1
     8    3    8 ar
     9    3    4 ar
    10    4    5 ar
    11    4   35 1
    12    5    6 ar
    13    5   36 1
    14    6    7 ar
    15    6    9 1
    16    7    8 ar
    17    7   37 1
    18    8   38 1
    19    9   28 am
    20    9   10 am
    21   10   11 2
    22   10   12 1
    23   12   13 2
    24   12   25 1
    25   13   14 1
    26   13   39 1
    27   14   19 1
    28   14   15 2
    29   15   16 1
    30   15   40 1
    31   16   17 1
    32   16   18 1
    33   18   23 ar
    34   18   19 ar
    35   19   20 ar
    36   20   21 ar
    37   20   41 1
    38   21   22 ar
    39   21   24 1
    40   22   23 ar
    41   22   42 1
    42   23   43 1
    43   25   26 2
    44   25   27 am
    45   27   28 am
    46   27   44 1
    47   28   29 2
@<TRIPOS>MOLECULE
ZINC08934402
   53    55     0     0     0
SMALL
USER_CHARGES
tert-butyl (8R,8aR)-6-amino-8-(4-bromophenyl)-5,7,7-tricyano-1,3,8,8a-tetrahydroisoquinoline-2-carboxylate
@<TRIPOS>ATOM
      1 C1          2.6712    2.6966    4.1519 C.3       1 <0>        -0.1884
      2 C2          3.4576    2.1788    2.9460 C.3       1 <0>         0.1408
      3 C3          4.3112    0.9817    3.3696 C.3       1 <0>        -0.1445
      4 C4          4.3653    3.2896    2.4139 C.3       1 <0>        -0.1854
      5 O1          2.5326    1.7692    1.9045 O.3       1 <0>        -0.3607
      6 C5          1.7035    2.7119    1.4180 C.2       1 <0>         0.6635
      7 O2          1.7517    3.8459    1.8518 O.2       1 <0>        -0.5621
      8 N1          0.8201    2.3978    0.4497 N.am      1 <0>        -0.5938
      9 C6          0.7351    1.0322   -0.0991 C.3       1 <0>         0.1426
     10 C7         -0.6918    0.5748    0.0667 C.2       1 <0>        -0.1542
     11 C8         -1.6881    1.4375    0.1043 C.2       1 <0>        -0.0333
     12 C9         -1.5305    2.9213   -0.0420 C.3       1 <0>        -0.0599
     13 H1         -1.9337    3.1836   -1.0312 H         1 <0>         0.1061
     14 C10        -0.0976    3.4000   -0.1022 C.3       1 <0>         0.1330
     15 C11        -2.3135    3.6062    1.0796 C.3       1 <0>        -0.0216
     16 H2         -2.1583    4.6946    1.0434 H         1 <0>         0.1256
     17 C12        -3.7986    3.2802    0.9167 C.3       1 <0>         0.2108
     18 C13        -4.0270    1.8071    0.7605 C.2       1 <0>         0.2594
     19 C14        -3.0624    0.9346    0.3756 C.2       1 <0>        -0.1513
     20 C15        -3.3643   -0.4572    0.2265 C.1       1 <0>         0.2627
     21 N2         -3.6037   -1.5614    0.1083 N.1       1 <0>        -0.4231
     22 N3         -5.2755    1.3160    1.0205 N.pl3     1 <0>        -0.8605
     23 C16        -4.5279    3.7563    2.1034 C.1       1 <0>         0.1909
     24 N4         -5.0907    4.1236    3.0193 N.1       1 <0>        -0.3441
     25 C17        -4.3153    3.9754   -0.2735 C.1       1 <0>         0.1966
     26 N5         -4.7140    4.5119   -1.1920 N.1       1 <0>        -0.3472
     27 C18        -1.8272    3.1035    2.4145 C.ar      1 <0>        -0.0811
     28 C19        -2.2936    1.9008    2.9115 C.ar      1 <0>        -0.1162
     29 C20        -1.8443    1.4370    4.1336 C.ar      1 <0>        -0.0890
     30 C21        -0.9358    2.1815    4.8641 C.ar      1 <0>        -0.0812
     31 C22        -0.4733    3.3874    4.3688 C.ar      1 <0>        -0.0831
     32 C23        -0.9192    3.8479    3.1442 C.ar      1 <0>        -0.0784
     33 Br1        -0.3256    1.5507    6.5391 Br        1 <0>        -0.0508
     34 H3          2.0575    3.5572    3.8473 H         1 <0>         0.0917
     35 H4          3.3721    3.0069    4.9409 H         1 <0>         0.0683
     36 H5          2.0186    1.8980    4.5344 H         1 <0>         0.0624
     37 H6          4.8766    0.6094    2.5026 H         1 <0>         0.0662
     38 H7          3.6586    0.1831    3.7521 H         1 <0>         0.0669
     39 H8          5.0120    1.2920    4.1586 H         1 <0>         0.0810
     40 H9          4.9307    2.9173    1.5469 H         1 <0>         0.0582
     41 H10         5.0661    3.5999    3.2029 H         1 <0>         0.0698
     42 H11         3.7516    4.1502    2.1094 H         1 <0>         0.0893
     43 H12         1.0164    1.0462   -1.1624 H         1 <0>         0.0887
     44 H13         1.4203    0.3719    0.4528 H         1 <0>         0.1060
     45 H14        -0.8936   -0.5027    0.1571 H         1 <0>         0.1240
     46 H15        -0.0143    4.3316    0.4767 H         1 <0>         0.1078
     47 H16         0.1628    3.5966   -1.1527 H         1 <0>         0.0864
     48 H17        -5.4760    0.2396    0.9153 H         1 <0>         0.4385
     49 H18        -6.0800    1.9971    1.3350 H         1 <0>         0.4288
     50 H19        -3.0061    1.3215    2.3430 H         1 <0>         0.1448
     51 H20        -2.2059    0.4956    4.5201 H         1 <0>         0.1295
     52 H21         0.2363    3.9689    4.9386 H         1 <0>         0.1328
     53 H22        -0.5585    4.7896    2.7576 H         1 <0>         0.1369
@<TRIPOS>BOND
     1    1    2 1
     2    1   34 1
     3    1   35 1
     4    1   36 1
     5    2    3 1
     6    2    4 1
     7    2    5 1
     8    3   37 1
     9    3   38 1
    10    3   39 1
    11    4   40 1
    12    4   41 1
    13    4   42 1
    14    5    6 1
    15    6    7 2
    16    6    8 am
    17    8   14 1
    18    8    9 1
    19    9   10 1
    20    9   43 1
    21    9   44 1
    22   10   11 2
    23   10   45 1
    24   11   19 1
    25   11   12 1
    26   12   13 1
    27   12   14 1
    28   12   15 1
    29   14   46 1
    30   14   47 1
    31   15   16 1
    32   15   17 1
    33   15   27 1
    34   17   18 1
    35   17   23 1
    36   17   25 1
    37   18   19 2
    38   18   22 1
    39   19   20 1
    40   20   21 3
    41   22   48 1
    42   22   49 1
    43   23   24 3
    44   25   26 3
    45   27   32 ar
    46   27   28 ar
    47   28   29 ar
    48   28   50 1
    49   29   30 ar
    50   29   51 1
    51   30   31 ar
    52   30   33 1
    53   31   32 ar
    54   31   52 1
    55   32   53 1
@<TRIPOS>MOLECULE
ZINC39455873
   39    42     0     0     0
SMALL
USER_CHARGES

@<TRIPOS>ATOM
      1 C1         -0.0187    1.5258    0.0104 C.3       1 <0>        -0.1403
      2 C2          0.0021   -0.0041    0.0020 C.3       1 <0>         0.0288
      3 O1          0.6932   -0.4774    1.1597 O.3       1 <0>        -0.0999
      4 N1          0.7692   -1.8886    1.2482 N.am      1 <0>        -0.3739
      5 C3         -0.2465   -2.5760    1.9043 C.2       1 <0>        -0.0171
      6 C4         -0.2185   -3.9520    2.0113 C.2       1 <0>         0.2224
      7 C5          0.9037   -4.7109    1.4321 C.ar      1 <0>         0.2086
      8 C6          1.9272   -3.9835    0.7693 C.ar      1 <0>        -0.1747
      9 C7          1.8179   -2.5185    0.6905 C.2       1 <0>         0.5570
     10 O2          2.6811   -1.8748    0.1231 O.2       1 <0>        -0.5012
     11 C8          3.0057   -4.6497    0.2033 C.ar      1 <0>         0.0420
     12 C9          3.0409   -6.0462    0.3128 C.ar      1 <0>        -0.1381
     13 C10         1.9514   -6.7314    1.0129 C.ar      1 <0>         0.1756
     14 N2          0.9458   -6.0267    1.5320 N.ar      1 <0>        -0.4557
     15 C11         1.9954   -8.1325    1.1197 C.ar      1 <0>        -0.1069
     16 C12         3.0364   -8.8214    0.5761 C.ar      1 <0>        -0.0624
     17 C13         4.0734   -8.1796   -0.0906 C.ar      1 <0>        -0.1433
     18 C14         4.0945   -6.8091   -0.2309 C.ar      1 <0>         0.1489
     19 O3          5.1163   -6.2012   -0.8853 O.3       1 <0>        -0.4874
     20 N3         -1.2453   -4.6148    2.6555 N.pl3     1 <0>        -0.6866
     21 C15        -2.5719   -3.9801    2.6887 C.3       1 <0>         0.1727
     22 H1         -3.2353   -4.5487    3.3403 H         1 <0>         0.1429
     23 C16        -2.4087   -2.5562    3.2325 C.3       1 <0>        -0.1677
     24 C17        -1.3228   -1.8498    2.4641 C.2       1 <0>         0.3948
     25 O4         -1.3720   -0.6441    2.3242 O.2       1 <0>        -0.4213
     26 I1         -3.3965   -3.9091    0.6914 I         1 <0>        -0.1341
     27 H2          1.0039    1.9031    0.0027 H         1 <0>         0.0668
     28 H3         -0.5459    1.8868   -0.8726 H         1 <0>         0.0799
     29 H4         -0.5289    1.8773    0.9072 H         1 <0>         0.0714
     30 H5         -1.0205   -0.3814    0.0098 H         1 <0>         0.0622
     31 H6          0.5123   -0.3556   -0.8948 H         1 <0>         0.0578
     32 H7          3.7911   -4.1097   -0.3046 H         1 <0>         0.1661
     33 H8          1.2054   -8.6613    1.6322 H         1 <0>         0.1465
     34 H9          3.0572   -9.8975    0.6658 H         1 <0>         0.1416
     35 H10         4.8790   -8.7667   -0.5062 H         1 <0>         0.1413
     36 H11         5.8566   -5.9534   -0.3148 H         1 <0>         0.4004
     37 H12        -1.0953   -5.4766    3.0748 H         1 <0>         0.4298
     38 H13        -3.3470   -2.0135    3.1184 H         1 <0>         0.1241
     39 H14        -2.1388   -2.5987    4.2877 H         1 <0>         0.1289
@<TRIPOS>BOND
     1    1    2 1
     2    1   27 1
     3    1   28 1
     4    1   29 1
     5    2    3 1
     6    2   30 1
     7    2   31 1
     8    3    4 1
     9    4    9 am
    10    4    5 1
    11    5   24 1
    12    5    6 2
    13    6    7 1
    14    6   20 1
    15    7   14 ar
    16    7    8 ar
    17    8    9 1
    18    8   11 ar
    19    9   10 2
    20   11   12 ar
    21   11   32 1
    22   12   18 ar
    23   12   13 ar
    24   13   14 ar
    25   13   15 ar
    26   15   16 ar
    27   15   33 1
    28   16   17 ar
    29   16   34 1
    30   17   18 ar
    31   17   35 1
    32   18   19 1
    33   19   36 1
    34   20   21 1
    35   20   37 1
    36   21   22 1
    37   21   23 1
    38   21   26 1
    39   23   24 1
    40   23   38 1
    41   23   39 1
    42   24   25 2
@<TRIPOS>MOLECULE
ZINC63985207
   52    56     0     0     0
SMALL
USER_CHARGES

@<TRIPOS>ATOM
      1 C1          1.5560   -8.7649   -6.1422 C.3       1 <0>        -0.1218
      2 C2          1.2392   -8.0796   -4.8379 C.ar      1 <0>        -0.0628
      3 C3          2.2644   -7.6002   -4.0434 C.ar      1 <0>        -0.0987
      4 C4          1.9774   -6.9722   -2.8474 C.ar      1 <0>        -0.0853
      5 C5          0.6577   -6.8215   -2.4424 C.ar      1 <0>         0.1459
      6 C6         -0.3701   -7.3029   -3.2414 C.ar      1 <0>        -0.0827
      7 C7         -0.0773   -7.9263   -4.4403 C.ar      1 <0>        -0.0299
      8 Cl1        -1.3618   -8.5227   -5.4443 Cl        1 <0>        -0.0588
      9 N1          0.3641   -6.1850   -1.2290 N.am      1 <0>        -0.5198
     10 C8          0.2792   -6.9106   -0.0964 C.2       1 <0>         0.5705
     11 O1          0.4571   -8.1161   -0.1253 O.2       1 <0>        -0.5323
     12 C9         -0.0156   -6.2676    1.1185 C.2       1 <0>        -0.4691
     13 C10        -0.2098   -4.9180    1.1239 C.2       1 <0>         0.4619
     14 N2         -0.1141   -4.2176   -0.0519 N.am      1 <0>        -0.6447
     15 C11         0.1745   -4.8531   -1.2024 C.2       1 <0>         0.7046
     16 O2          0.2607   -4.2151   -2.2338 O.2       1 <0>        -0.5357
     17 O3         -0.4945   -4.2763    2.2768 O.3       1 <0>        -0.5282
     18 C12        -0.1160   -7.0590    2.3971 C.3       1 <0>         0.1961
     19 H1          0.0035   -8.1208    2.1820 H         1 <0>         0.1126
     20 C13        -1.4790   -6.8149    3.0490 C.3       1 <0>         0.1023
     21 H2         -1.6081   -7.4624    3.9163 H         1 <0>         0.1503
     22 C14        -1.4945   -5.3494    3.4685 C.2       1 <0>         0.2348
     23 C15        -2.5807   -4.8158    2.9274 C.ar      1 <0>        -0.2389
     24 C16        -3.1767   -3.4748    3.0407 C.ar      1 <0>         0.0363
     25 C17        -4.3109   -3.2599    2.3233 C.ar      1 <0>        -0.2070
     26 C18        -4.9051   -4.2329    1.5136 C.ar      1 <0>         0.0069
     27 C19        -4.4292   -5.4937    1.3551 C.ar      1 <0>        -0.2071
     28 C20        -3.2431   -5.8416    2.0644 C.ar      1 <0>         0.2815
     29 N3         -2.5892   -6.9862    2.1131 N.pl3     1 <0>        -0.6329
     30 C21        -0.3645   -4.7413    4.2633 C.3       1 <0>        -0.0353
     31 C22         0.9359   -5.1730    3.5608 C.3       1 <0>         0.0340
     32 N4          0.9309   -6.6219    3.3343 N.3       1 <0>        -0.5452
     33 C23         2.2537   -7.0933    2.9031 C.3       1 <0>         0.0405
     34 H3          1.5912   -8.0253   -6.9420 H         1 <0>         0.0798
     35 H4          2.5223   -9.2633   -6.0654 H         1 <0>         0.0748
     36 H5          0.7836   -9.5018   -6.3624 H         1 <0>         0.0759
     37 H6          3.2908   -7.7175   -4.3583 H         1 <0>         0.1416
     38 H7          2.7789   -6.5988   -2.2272 H         1 <0>         0.1301
     39 H8         -1.3974   -7.1871   -2.9290 H         1 <0>         0.1316
     40 H9         -0.2517   -3.2574   -0.0533 H         1 <0>         0.4294
     41 H10        -2.7379   -2.7056    3.6589 H         1 <0>         0.1456
     42 H11        -4.7771   -2.2874    2.3813 H         1 <0>         0.1280
     43 H12        -5.8036   -3.9629    0.9787 H         1 <0>         0.1293
     44 H13        -4.9301   -6.2061    0.7164 H         1 <0>         0.1417
     45 H14        -0.4479   -3.6545    4.2619 H         1 <0>         0.1039
     46 H15        -0.3806   -5.1181    5.2859 H         1 <0>         0.0759
     47 H16         1.0175   -4.6582    2.6035 H         1 <0>         0.1008
     48 H17         1.7891   -4.9081    4.1852 H         1 <0>         0.0653
     49 H18         2.4787   -6.6909    1.9154 H         1 <0>         0.0273
     50 H19         3.0088   -6.7564    3.6133 H         1 <0>         0.0686
     51 H20         2.2552   -8.1825    2.8606 H         1 <0>         0.0694
     52 H21        -2.7959   -7.7953    1.6196 H         1 <0>         0.4387
@<TRIPOS>BOND
     1    1    2 1
     2    1   34 1
     3    1   35 1
     4    1   36 1
     5    2    7 ar
     6    2    3 ar
     7    3    4 ar
     8    3   37 1
     9    4    5 ar
    10    4   38 1
    11    5    6 ar
    12    5    9 1
    13    6    7 ar
    14    6   39 1
    15    7    8 1
    16    9   15 am
    17    9   10 am
    18   10   11 2
    19   10   12 1
    20   12   18 1
    21   12   13 2
    22   13   17 1
    23   13   14 1
    24   14   40 1
    25   14   15 am
    26   15   16 2
    27   18   19 1
    28   18   32 1
    29   18   20 1
    30   20   21 1
    31   20   29 1
    32   20   22 1
    33   22   23 2
    34   22   30 1
    35   23   28 ar
    36   23   24 ar
    37   24   25 ar
    38   24   41 1
    39   25   26 ar
    40   25   42 1
    41   26   27 ar
    42   26   43 1
    43   27   28 ar
    44   27   44 1
    45   28   29 2
    46   29   52 1
    47   30   31 1
    48   30   45 1
    49   30   46 1
    50   31   32 1
    51   31   47 1
    52   31   48 1
    53   32   33 1
    54   33   49 1
    55   33   50 1
    56   33   51 1
@<TRIPOS>MOLECULE
ZINC20763857
   49    53     0     0     0
SMALL
USER_CHARGES
2-[(2S,4S)-6-(1,3-benzodioxol-5-yl)-2-(2,4-dichlorophenyl)-2,3,4,5-tetrahydropyrimidin-4-yl]-4-chloro-phenol
@<TRIPOS>ATOM
      1 C1          5.2464    2.9699    3.9150 C.ar      1 <0>        -0.0675
      2 C2          6.1947    2.1831    4.5328 C.ar      1 <0>        -0.1074
      3 C3          6.7454    1.0984    3.8649 C.ar      1 <0>         0.0749
      4 C4          6.3355    0.7957    2.5656 C.ar      1 <0>         0.0265
      5 C5          5.3813    1.5766    1.9433 C.ar      1 <0>        -0.0450
      6 C6          4.8278    2.6693    2.6166 C.ar      1 <0>        -0.0864
      7 C7          3.8094    3.5061    1.9560 C.2       1 <0>         0.2706
      8 N1          3.4520    3.2055    0.7643 N.2       1 <0>        -0.5096
      9 C8          2.4509    3.9389   -0.0001 C.3       1 <0>         0.2643
     10 H1          2.8412    4.0718   -1.0199 H         1 <0>         0.1784
     11 N2          2.2257    5.2673    0.5822 N.4       1 <0>        -0.5719
     12 C9          1.9567    5.1509    2.0258 C.3       1 <0>         0.1014
     13 H2          1.1280    4.4426    2.1727 H         1 <0>         0.1527
     14 C10         3.2387    4.6722    2.7141 C.3       1 <0>        -0.1489
     15 C11         1.5532    6.4939    2.5777 C.ar      1 <0>        -0.1722
     16 C12         1.8705    7.6483    1.8881 C.ar      1 <0>        -0.0839
     17 C13         1.5004    8.8814    2.3945 C.ar      1 <0>        -0.0645
     18 C14         0.8118    8.9612    3.5922 C.ar      1 <0>        -0.0432
     19 C15         0.4931    7.8094    4.2847 C.ar      1 <0>        -0.1840
     20 C16         0.8581    6.5715    3.7755 C.ar      1 <0>         0.2016
     21 O1          0.5401    5.4366    4.4525 O.3       1 <0>        -0.5058
     22 Cl1         1.8997   10.3305    1.5259 Cl        1 <0>        -0.0420
     23 C17         1.1565    3.1673    0.0081 C.ar      1 <0>        -0.1361
     24 C18        -0.0501    3.8419    0.0237 C.ar      1 <0>        -0.0999
     25 C19        -1.2375    3.1349    0.0317 C.ar      1 <0>        -0.0925
     26 C20        -1.2195    1.7513    0.0174 C.ar      1 <0>        -0.0014
     27 C21        -0.0126    1.0758    0.0080 C.ar      1 <0>        -0.0953
     28 C22         1.1759    1.7841    0.0004 C.ar      1 <0>         0.0146
     29 Cl2         2.6912    0.9372   -0.0181 Cl        1 <0>         0.0000
     30 Cl3        -2.7113    0.8635    0.0196 Cl        1 <0>        -0.0251
     31 O2          7.0205   -0.3054    2.1384 O.3       1 <0>        -0.3046
     32 C23         7.5496   -0.9147    3.3308 C.3       1 <0>         0.2066
     33 O3          7.6854    0.1870    4.2475 O.3       1 <0>        -0.2956
     34 H3          4.8238    3.8161    4.4363 H         1 <0>         0.1456
     35 H4          6.5138    2.4145    5.5384 H         1 <0>         0.1484
     36 H5          5.0631    1.3432    0.9380 H         1 <0>         0.1456
     37 H6          3.1199    5.8900    0.4316 H         1 <0>         0.4538
     38 H7          3.0081    4.3624    3.7441 H         1 <0>         0.1441
     39 H8          3.9724    5.4916    2.7333 H         1 <0>         0.1287
     40 H9          2.4075    7.5880    0.9531 H         1 <0>         0.1320
     41 H10         0.5236    9.9248    3.9859 H         1 <0>         0.1490
     42 H11        -0.0443    7.8721    5.2194 H         1 <0>         0.1513
     43 H12        -0.0112    5.4990    5.4024 H         1 <0>         0.4589
     44 H13        -0.0647    4.9218    0.0301 H         1 <0>         0.1337
     45 H14        -2.1798    3.6625    0.0443 H         1 <0>         0.1539
     46 H15         0.0021   -0.0041    0.0020 H         1 <0>         0.1580
     47 H16         6.8454   -1.6764    3.6968 H         1 <0>         0.0947
     48 H17         8.5160   -1.3881    3.1028 H         1 <0>         0.1432
     49 H18         1.3623    5.7409    0.0921 H         1 <0>         0.4506
@<TRIPOS>BOND
     1    1    6 ar
     2    1    2 ar
     3    1   34 1
     4    2    3 ar
     5    2   35 1
     6    3   33 1
     7    3    4 ar
     8    4    5 ar
     9    4   31 1
    10    5    6 ar
    11    5   36 1
    12    6    7 1
    13    7   14 1
    14    7    8 2
    15    8    9 1
    16    9   10 1
    17    9   11 1
    18    9   23 1
    19   11   12 1
    20   11   37 1
    21   11   49 1
    22   12   13 1
    23   12   14 1
    24   12   15 1
    25   14   38 1
    26   14   39 1
    27   15   20 ar
    28   15   16 ar
    29   16   17 ar
    30   16   40 1
    31   17   18 ar
    32   17   22 1
    33   18   19 ar
    34   18   41 1
    35   19   20 ar
    36   19   42 1
    37   20   21 1
    38   21   43 1
    39   23   28 ar
    40   23   24 ar
    41   24   25 ar
    42   24   44 1
    43   25   26 ar
    44   25   45 1
    45   26   27 ar
    46   26   30 1
    47   27   28 ar
    48   27   46 1
    49   28   29 1
    50   31   32 1
    51   32   33 1
    52   32   47 1
    53   32   48 1
@<TRIPOS>MOLECULE
ZINC39656985
   62    65     0     0     0
SMALL
USER_CHARGES

@<TRIPOS>ATOM
      1 C1         -0.6506    1.7371   -0.1515 C.3       1 <0>        -0.1177
      2 C2         -0.5133    0.2365   -0.1672 C.ar      1 <0>        -0.1274
      3 C3         -0.5273   -0.4448   -1.3710 C.ar      1 <0>        -0.0407
      4 C4         -0.4021   -1.8217   -1.3969 C.ar      1 <0>        -0.1604
      5 C5         -0.2622   -2.5293   -0.2176 C.ar      1 <0>         0.1689
      6 C6         -0.2471   -1.8485    1.0042 C.ar      1 <0>        -0.2036
      7 C7         -0.3682   -0.4546    1.0208 C.ar      1 <0>         0.1579
      8 F1         -0.3488    0.2132    2.1950 F         1 <0>        -0.1208
      9 C8         -0.0982   -2.5953    2.2679 C.2       1 <0>         0.6064
     10 O1          1.0096   -2.8071    2.7221 O.2       1 <0>        -0.5114
     11 N1         -1.1902   -3.0429    2.9188 N.am      1 <0>        -0.6084
     12 C9         -2.6100   -2.8902    2.5225 C.3       1 <0>         0.1158
     13 C10        -3.2637   -4.2429    2.8837 C.3       1 <0>        -0.1141
     14 H1         -4.2731   -4.0870    3.2643 H         1 <0>         0.1182
     15 C11        -2.3629   -4.8335    3.9813 C.3       1 <0>        -0.0721
     16 C12        -1.2421   -3.8048    4.1896 C.3       1 <0>         0.1074
     17 C13        -1.7718   -6.1627    3.5213 C.3       1 <0>        -0.1482
     18 C14        -0.9259   -6.7578    4.6507 C.3       1 <0>        -0.0098
     19 N2         -1.7641   -6.9571    5.8392 N.4       1 <0>        -0.5044
     20 C15        -2.2534   -5.6631    6.3298 C.3       1 <0>        -0.0103
     21 C16        -3.1551   -5.0215    5.2714 C.3       1 <0>        -0.1336
     22 C17        -3.2920   -5.1498    1.6805 C.2       1 <0>         0.5144
     23 O2         -2.4228   -5.0678    0.8387 O.2       1 <0>        -0.5040
     24 N3         -4.2833   -6.0521    1.5398 N.am      1 <0>        -0.7247
     25 C18        -4.3108   -6.9338    0.3702 C.3       1 <0>         0.1843
     26 H2         -3.9329   -6.3958   -0.4993 H         1 <0>         0.1032
     27 C19        -3.4322   -8.1583    0.6337 C.3       1 <0>        -0.1580
     28 C20        -5.7269   -7.3783    0.1094 C.ar      1 <0>        -0.0854
     29 C21        -6.5573   -7.6966    1.1678 C.ar      1 <0>        -0.1120
     30 C22        -7.8563   -8.1039    0.9291 C.ar      1 <0>        -0.0859
     31 C23        -8.3255   -8.1930   -0.3691 C.ar      1 <0>        -0.0867
     32 C24        -7.4943   -7.8744   -1.4279 C.ar      1 <0>        -0.0815
     33 C25        -6.1971   -7.4621   -1.1880 C.ar      1 <0>        -0.0983
     34 Br1       -10.1025   -8.7508   -0.6963 Br        1 <0>        -0.0365
     35 F2         -0.1409   -3.8746   -0.2451 F         1 <0>        -0.1107
     36 H3          0.3373    2.1930   -0.2177 H         1 <0>         0.0823
     37 H4         -1.2553    2.0556   -1.0006 H         1 <0>         0.0808
     38 H5         -1.1330    2.0482    0.7752 H         1 <0>         0.0738
     39 H6         -0.6370    0.1019   -2.2959 H         1 <0>         0.1524
     40 H7         -0.4140   -2.3457   -2.3412 H         1 <0>         0.1521
     41 H8         -3.0764   -2.0808    3.0842 H         1 <0>         0.0927
     42 H9         -2.6877   -2.7046    1.4513 H         1 <0>         0.0956
     43 H10        -0.2927   -4.3091    4.3698 H         1 <0>         0.0901
     44 H11        -1.4860   -3.1428    5.0204 H         1 <0>         0.0880
     45 H12        -2.5779   -6.8515    3.2688 H         1 <0>         0.0964
     46 H13        -1.1448   -5.9983    2.6450 H         1 <0>         0.1257
     47 H14        -0.5156   -7.7156    4.3309 H         1 <0>         0.1390
     48 H15        -0.1105   -6.0758    4.8916 H         1 <0>         0.1346
     49 H16        -2.5496   -7.5437    5.6006 H         1 <0>         0.4272
     50 H17        -2.8216   -5.8140    7.2476 H         1 <0>         0.1407
     51 H18        -1.4064   -5.0072    6.5310 H         1 <0>         0.1333
     52 H19        -3.5034   -4.0525    5.6290 H         1 <0>         0.1227
     53 H20        -4.0111   -5.6691    5.0816 H         1 <0>         0.0980
     54 H21        -4.9785   -6.1177    2.2131 H         1 <0>         0.3983
     55 H22        -3.4527   -8.8143   -0.2365 H         1 <0>         0.0746
     56 H23        -2.4080   -7.8368    0.8224 H         1 <0>         0.0650
     57 H24        -3.8102   -8.6963    1.5032 H         1 <0>         0.0571
     58 H25        -6.1907   -7.6274    2.1813 H         1 <0>         0.1242
     59 H26        -8.5048   -8.3529    1.7561 H         1 <0>         0.1359
     60 H27        -7.8603   -7.9437   -2.4416 H         1 <0>         0.1392
     61 H28        -5.5493   -7.2094   -2.0143 H         1 <0>         0.1362
     62 H29        -1.2202   -7.4052    6.5613 H         1 <0>         0.4345
@<TRIPOS>BOND
     1    1    2 1
     2    1   36 1
     3    1   37 1
     4    1   38 1
     5    2    7 ar
     6    2    3 ar
     7    3    4 ar
     8    3   39 1
     9    4    5 ar
    10    4   40 1
    11    5    6 ar
    12    5   35 1
    13    6    7 ar
    14    6    9 1
    15    7    8 1
    16    9   10 2
    17    9   11 am
    18   11   16 1
    19   11   12 1
    20   12   13 1
    21   12   41 1
    22   12   42 1
    23   13   14 1
    24   13   15 1
    25   13   22 1
    26   15   21 1
    27   15   16 1
    28   15   17 1
    29   16   43 1
    30   16   44 1
    31   17   18 1
    32   17   45 1
    33   17   46 1
    34   18   19 1
    35   18   47 1
    36   18   48 1
    37   19   20 1
    38   19   49 1
    39   19   62 1
    40   20   21 1
    41   20   50 1
    42   20   51 1
    43   21   52 1
    44   21   53 1
    45   22   23 2
    46   22   24 am
    47   24   25 1
    48   24   54 1
    49   25   26 1
    50   25   27 1
    51   25   28 1
    52   27   55 1
    53   27   56 1
    54   27   57 1
    55   28   33 ar
    56   28   29 ar
    57   29   30 ar
    58   29   58 1
    59   30   31 ar
    60   30   59 1
    61   31   32 ar
    62   31   34 1
    63   32   33 ar
    64   32   60 1
    65   33   61 1
@<TRIPOS>MOLECULE
ZINC39686473
   66    69     0     0     0
SMALL
USER_CHARGES

@<TRIPOS>ATOM
      1 C1          2.3028    0.4706    0.7607 C.3       1 <0>        -0.1560
      2 C2          1.0897    0.9882    1.5363 C.3       1 <0>         0.1475
      3 H1          0.4856    1.6208    0.8860 H         1 <0>         0.0976
      4 C3          1.5645    1.8020    2.7418 C.3       1 <0>        -0.0838
      5 C4          2.5383    0.9826    3.5489 C.ar      1 <0>        -0.1190
      6 C5          2.1399    0.4142    4.7436 C.ar      1 <0>        -0.0878
      7 C6          3.0329   -0.3371    5.4847 C.ar      1 <0>        -0.1550
      8 C7          4.3266   -0.5221    5.0325 C.ar      1 <0>        -0.0821
      9 C8          4.7296    0.0437    3.8386 C.ar      1 <0>        -0.2054
     10 C9          3.8337    0.7938    3.0903 C.ar      1 <0>         0.1349
     11 O1          4.2262    1.3469    1.9126 O.3       1 <0>        -0.3055
     12 C10         5.6071    1.2236    1.5664 C.3       1 <0>         0.0189
     13 N1          0.2856   -0.1457    1.9987 N.am      1 <0>        -0.7217
     14 C11        -0.7305   -0.6046    1.2414 C.2       1 <0>         0.5165
     15 O2         -0.9215   -0.1405    0.1373 O.2       1 <0>        -0.5161
     16 C12        -1.6293   -1.6943    1.7665 C.3       1 <0>        -0.1167
     17 H2         -1.7046   -1.6328    2.8522 H         1 <0>         0.1176
     18 C13        -3.0305   -1.5925    1.1234 C.3       1 <0>         0.1151
     19 N2         -2.9841   -2.5277   -0.0252 N.am      1 <0>        -0.6120
     20 C14        -2.2165   -3.6920    0.4782 C.3       1 <0>         0.1084
     21 C15        -1.1000   -3.0750    1.3438 C.3       1 <0>        -0.0727
     22 C16        -0.8445   -3.9420    2.5729 C.3       1 <0>        -0.1342
     23 C17        -0.2638   -5.2882    2.1308 C.3       1 <0>        -0.0101
     24 N3          0.9870   -5.0659    1.3953 N.4       1 <0>        -0.5048
     25 C18         0.7174   -4.3104    0.1660 C.3       1 <0>        -0.0096
     26 C19         0.1783   -2.9229    0.5250 C.3       1 <0>        -0.1472
     27 C20        -3.5192   -2.3584   -1.2506 C.2       1 <0>         0.6011
     28 O3         -3.5195   -3.2775   -2.0459 O.2       1 <0>        -0.5137
     29 C21        -4.1058   -1.0545   -1.6273 C.ar      1 <0>        -0.1067
     30 C22        -3.2768    0.0082   -1.9894 C.ar      1 <0>        -0.0568
     31 C23        -3.8306    1.2236   -2.3403 C.ar      1 <0>        -0.0252
     32 C24        -5.2051    1.3890   -2.3332 C.ar      1 <0>        -0.0825
     33 C25        -6.0326    0.3386   -1.9744 C.ar      1 <0>        -0.0265
     34 C26        -5.4908   -0.8834   -1.6276 C.ar      1 <0>        -0.0707
     35 Cl1        -7.7549    0.5559   -1.9675 Cl        1 <0>        -0.0402
     36 Cl2        -2.8011    2.5469   -2.7905 Cl        1 <0>        -0.0408
     37 H3          2.9069   -0.1621    1.4110 H         1 <0>         0.0592
     38 H4          1.9645   -0.1092   -0.0981 H         1 <0>         0.0465
     39 H5          2.9011    1.3142    0.4167 H         1 <0>         0.0839
     40 H6          2.0547    2.7119    2.3956 H         1 <0>         0.0943
     41 H7          0.7081    2.0644    3.3630 H         1 <0>         0.0796
     42 H8          1.1301    0.5572    5.0989 H         1 <0>         0.1277
     43 H9          2.7197   -0.7800    6.4186 H         1 <0>         0.1246
     44 H10         5.0224   -1.1091    5.6134 H         1 <0>         0.1250
     45 H11         5.7401   -0.1010    3.4859 H         1 <0>         0.1287
     46 H12         5.8527    0.1716    1.4208 H         1 <0>         0.0537
     47 H13         5.8011    1.7729    0.6451 H         1 <0>         0.1030
     48 H14         6.2209    1.6323    2.3691 H         1 <0>         0.0580
     49 H15         0.4844   -0.5663    2.8498 H         1 <0>         0.3965
     50 H16        -3.7979   -1.9006    1.8335 H         1 <0>         0.0921
     51 H17        -3.2172   -0.5756    0.7781 H         1 <0>         0.1000
     52 H18        -2.8547   -4.3353    1.0840 H         1 <0>         0.0877
     53 H19        -1.7881   -4.2531   -0.3524 H         1 <0>         0.0887
     54 H20        -0.1367   -3.4393    3.2320 H         1 <0>         0.0979
     55 H21        -1.7824   -4.1069    3.1032 H         1 <0>         0.1226
     56 H22        -0.0647   -5.9035    3.0082 H         1 <0>         0.1402
     57 H23        -0.9791   -5.7976    1.4851 H         1 <0>         0.1333
     58 H24         1.6283   -4.5452    1.9747 H         1 <0>         0.4275
     59 H25         1.6398   -4.2049   -0.4050 H         1 <0>         0.1378
     60 H26        -0.0212   -4.8431   -0.4330 H         1 <0>         0.1343
     61 H27        -0.0385   -2.3692   -0.3885 H         1 <0>         0.1232
     62 H28         0.9231   -2.3833    1.1101 H         1 <0>         0.0976
     63 H29        -2.2044   -0.1196   -1.9950 H         1 <0>         0.1510
     64 H30        -5.6336    2.3414   -2.6084 H         1 <0>         0.1516
     65 H31        -6.1375   -1.7035   -1.3526 H         1 <0>         0.1445
     66 H32         1.3988   -5.9559    1.1581 H         1 <0>         0.4341
@<TRIPOS>BOND
     1    1    2 1
     2    1   37 1
     3    1   38 1
     4    1   39 1
     5    2    3 1
     6    2    4 1
     7    2   13 1
     8    4    5 1
     9    4   40 1
    10    4   41 1
    11    5   10 ar
    12    5    6 ar
    13    6    7 ar
    14    6   42 1
    15    7    8 ar
    16    7   43 1
    17    8    9 ar
    18    8   44 1
    19    9   10 ar
    20    9   45 1
    21   10   11 1
    22   11   12 1
    23   12   46 1
    24   12   47 1
    25   12   48 1
    26   13   14 am
    27   13   49 1
    28   14   15 2
    29   14   16 1
    30   16   17 1
    31   16   21 1
    32   16   18 1
    33   18   19 1
    34   18   50 1
    35   18   51 1
    36   19   20 1
    37   19   27 am
    38   20   21 1
    39   20   52 1
    40   20   53 1
    41   21   26 1
    42   21   22 1
    43   22   23 1
    44   22   54 1
    45   22   55 1
    46   23   24 1
    47   23   56 1
    48   23   57 1
    49   24   25 1
    50   24   58 1
    51   24   66 1
    52   25   26 1
    53   25   59 1
    54   25   60 1
    55   26   61 1
    56   26   62 1
    57   27   28 2
    58   27   29 1
    59   29   34 ar
    60   29   30 ar
    61   30   31 ar
    62   30   63 1
    63   31   32 ar
    64   31   36 1
    65   32   33 ar
    66   32   64 1
    67   33   34 ar
    68   33   35 1
    69   34   65 1
@<TRIPOS>MOLECULE
ZINC52550847
   55    59     0     0     0
SMALL
USER_CHARGES

@<TRIPOS>ATOM
      1 C1          0.5240    2.4606   -0.3772 C.3       1 <0>        -0.1071
      2 C2          1.6071    3.1483    0.4134 C.ar      1 <0>        -0.0970
      3 C3          2.0314    4.4299    0.0565 C.ar      1 <0>        -0.0656
      4 C4          1.6495    5.3691   -1.0010 C.2       1 <0>        -0.2112
      5 C5          2.4111    6.4640   -0.8481 C.2       1 <0>         0.0621
      6 N1          3.2497    6.3034    0.2207 N.pl3     1 <0>        -0.5973
      7 H1          3.8940    6.9605    0.5273 H         1 <0>         0.4156
      8 C6          3.0425    5.0678    0.7971 C.ar      1 <0>         0.0651
      9 C7          3.6138    4.4133    1.8838 C.ar      1 <0>        -0.0922
     10 C8          3.1895    3.1500    2.2278 C.ar      1 <0>        -0.1444
     11 C9          2.1829    2.5165    1.4998 C.ar      1 <0>         0.1703
     12 N2          1.7584    1.2342    1.8666 N.pl3     1 <0>        -0.7068
     13 C10         2.3055    0.6152    2.9776 C.ar      1 <0>         0.3021
     14 C11         1.9204    1.0078    4.2903 C.ar      1 <0>        -0.1527
     15 C12         0.9720    2.0320    4.6877 C.2       1 <0>        -0.0828
     16 C13         0.7521    2.2439    6.0118 C.2       1 <0>        -0.1125
     17 S1          1.8240    1.0604    6.8034 S.3       1 <0>         0.1280
     18 C14         2.5356    0.3158    5.3559 C.ar      1 <0>         0.1159
     19 N3          3.4206   -0.6434    5.1706 N.ar      1 <0>        -0.4436
     20 C15         3.7932   -1.0234    3.9666 C.ar      1 <0>         0.2036
     21 C16         3.2448   -0.4137    2.8318 C.ar      1 <0>        -0.0897
     22 C17         3.6490   -0.8361    1.5245 C.1       1 <0>         0.2483
     23 N4          3.9696   -1.1711    0.4875 N.1       1 <0>        -0.3805
     24 C18        -0.1518    3.2155    6.6399 C.2       1 <0>        -0.0600
     25 C19        -1.4776    3.1099    6.4776 C.2       1 <0>        -0.0724
     26 S2         -2.1860    4.4772    7.3776 S.3       1 <0>        -0.1612
     27 C20        -0.6513    5.4617    7.6396 C.3       1 <0>        -0.1007
     28 H2         -0.5366    6.2322    6.8772 H         1 <0>         0.1331
     29 C21         0.3971    4.3293    7.4723 C.3       1 <0>        -0.0838
     30 C22        -0.6043    6.0616    9.0463 C.3       1 <0>         0.0120
     31 N5         -1.5745    7.1604    9.1428 N.4       1 <0>        -0.3897
     32 C23        -1.6266    7.6475   10.5277 C.3       1 <0>        -0.0480
     33 C24        -1.1642    8.2554    8.2536 C.3       1 <0>        -0.0556
     34 H3         -0.4487    2.7067    0.0488 H         1 <0>         0.0692
     35 H4          0.5621    2.7960   -1.4137 H         1 <0>         0.0730
     36 H5          0.6751    1.3818   -0.3386 H         1 <0>         0.0573
     37 H6          0.8979    5.2105   -1.7602 H         1 <0>         0.1466
     38 H7          2.3683    7.3415   -1.4762 H         1 <0>         0.1719
     39 H8          4.3908    4.8966    2.4575 H         1 <0>         0.1218
     40 H9          3.6371    2.6466    3.0719 H         1 <0>         0.1203
     41 H10         1.0809    0.7791    1.3424 H         1 <0>         0.4175
     42 H11         0.4503    2.6160    3.9439 H         1 <0>         0.1454
     43 H12         4.5214   -1.8129    3.8535 H         1 <0>         0.1882
     44 H13        -2.0075    2.3539    5.9174 H         1 <0>         0.1871
     45 H14         0.6709    3.9419    8.4537 H         1 <0>         0.1098
     46 H15         1.2857    4.7343    6.9880 H         1 <0>         0.1096
     47 H16        -0.8525    5.2925    9.7778 H         1 <0>         0.1456
     48 H17         0.3973    6.4427    9.2455 H         1 <0>         0.1487
     49 H18        -2.0276    6.8659   11.1729 H         1 <0>         0.1265
     50 H19        -0.6219    7.9114   10.8580 H         1 <0>         0.1253
     51 H20        -2.2688    8.5267   10.5797 H         1 <0>         0.1281
     52 H21        -1.1256    7.8939    7.2260 H         1 <0>         0.1231
     53 H22        -1.8841    9.0707    8.3252 H         1 <0>         0.1290
     54 H23        -0.1785    8.6140    8.5499 H         1 <0>         0.1267
     55 H24        -2.4870    6.8284    8.8685 H         1 <0>         0.4280
@<TRIPOS>BOND
     1    1    2 1
     2    1   34 1
     3    1   35 1
     4    1   36 1
     5    2   11 ar
     6    2    3 ar
     7    3    8 ar
     8    3    4 1
     9    4    5 2
    10    4   37 1
    11    5    6 1
    12    5   38 1
    13    6    7 1
    14    6    8 1
    15    8    9 ar
    16    9   10 ar
    17    9   39 1
    18   10   11 ar
    19   10   40 1
    20   11   12 1
    21   12   13 1
    22   12   41 1
    23   13   21 ar
    24   13   14 ar
    25   14   18 ar
    26   14   15 1
    27   15   16 2
    28   15   42 1
    29   16   17 1
    30   16   24 1
    31   17   18 1
    32   18   19 ar
    33   19   20 ar
    34   20   21 ar
    35   20   43 1
    36   21   22 1
    37   22   23 3
    38   24   29 1
    39   24   25 2
    40   25   26 1
    41   25   44 1
    42   26   27 1
    43   27   28 1
    44   27   29 1
    45   27   30 1
    46   29   45 1
    47   29   46 1
    48   30   31 1
    49   30   47 1
    50   30   48 1
    51   31   32 1
    52   31   33 1
    53   31   55 1
    54   32   49 1
    55   32   50 1
    56   32   51 1
    57   33   52 1
    58   33   53 1
    59   33   54 1
@<TRIPOS>MOLECULE
ZINC65298367
   58    61     0     0     0
SMALL
USER_CHARGES

@<TRIPOS>ATOM
      1 C1         -0.0187    1.5258    0.0104 C.3       1 <0>        -0.1538
      2 C2          0.0021   -0.0041    0.0020 C.3       1 <0>         0.0519
      3 O1          0.6709   -0.4649   -1.1737 O.3       1 <0>        -0.3049
      4 C3          0.7768   -1.8109   -1.3363 C.ar      1 <0>         0.1150
      5 C4          0.2435   -2.6690   -0.3879 C.ar      1 <0>        -0.1915
      6 C5          0.3516   -4.0370   -0.5549 C.ar      1 <0>        -0.0805
      7 C6          0.9916   -4.5523   -1.6668 C.ar      1 <0>        -0.1281
      8 C7          1.5263   -3.7019   -2.6164 C.ar      1 <0>        -0.0723
      9 C8          1.4160   -2.3297   -2.4582 C.ar      1 <0>         0.0791
     10 O2          1.9361   -1.4917   -3.3945 O.3       1 <0>        -0.4831
     11 C9          2.2237   -4.2671   -3.8269 C.3       1 <0>         0.1370
     12 H1          2.0337   -3.6309   -4.6913 H         1 <0>         0.1070
     13 C10         3.7309   -4.3468   -3.5649 C.3       1 <0>        -0.1718
     14 C11         4.3793   -5.1928   -4.6251 C.2       1 <0>         0.2732
     15 N1          3.7210   -5.9677   -5.4014 N.2       1 <0>        -0.5724
     16 C12         2.2710   -6.1230   -5.3672 C.3       1 <0>         0.2617
     17 N2          1.7302   -5.6290   -4.0940 N.3       1 <0>        -0.6832
     18 C13         1.9112   -7.6041   -5.5279 C.3       1 <0>        -0.1215
     19 C14         2.3962   -8.0945   -6.8937 C.3       1 <0>         0.0023
     20 N3          1.7474   -7.3164   -7.9558 N.4       1 <0>        -0.3830
     21 C15         2.1388   -5.9058   -7.8507 C.3       1 <0>         0.0003
     22 C16         1.6442   -5.3327   -6.5210 C.3       1 <0>        -0.1296
     23 C17         2.1581   -7.8406   -9.2652 C.3       1 <0>        -0.0458
     24 C18         5.8458   -5.1257   -4.7779 C.ar      1 <0>        -0.0707
     25 C19         6.6002   -4.2957   -3.9459 C.ar      1 <0>        -0.0812
     26 C20         7.9701   -4.2374   -4.0938 C.ar      1 <0>        -0.0931
     27 C21         8.5976   -4.9997   -5.0647 C.ar      1 <0>        -0.0679
     28 C22         7.8552   -5.8244   -5.8931 C.ar      1 <0>        -0.1001
     29 C23         6.4853   -5.8963   -5.7513 C.ar      1 <0>        -0.0640
     30 Br1        10.4765   -4.9137   -5.2605 Br        1 <0>        -0.0314
     31 H2          1.0039    1.9031    0.0027 H         1 <0>         0.0677
     32 H3         -0.5459    1.8868   -0.8726 H         1 <0>         0.0682
     33 H4         -0.5289    1.8773    0.9072 H         1 <0>         0.0826
     34 H5          0.5293   -0.3651    0.8851 H         1 <0>         0.0643
     35 H6         -1.0205   -0.3814    0.0098 H         1 <0>         0.0644
     36 H7         -0.2563   -2.2690    0.4819 H         1 <0>         0.1354
     37 H8         -0.0645   -4.7047    0.1850 H         1 <0>         0.1317
     38 H9          1.0743   -5.6217   -1.7935 H         1 <0>         0.1263
     39 H10         2.8557   -1.2414   -3.2309 H         1 <0>         0.3849
     40 H11         4.1574   -3.3440   -3.5888 H         1 <0>         0.1044
     41 H12         3.9064   -4.7932   -2.5861 H         1 <0>         0.1041
     42 H13         1.9630   -6.2531   -3.3362 H         1 <0>         0.3548
     43 H14         2.3934   -8.1835   -4.7406 H         1 <0>         0.1104
     44 H15         0.8301   -7.7256   -5.4603 H         1 <0>         0.1044
     45 H16         3.4770   -7.9698   -6.9611 H         1 <0>         0.1377
     46 H17         2.1450   -9.1486   -7.0109 H         1 <0>         0.1313
     47 H18         3.2248   -5.8260   -7.8986 H         1 <0>         0.1345
     48 H19         1.6976   -5.3445   -8.6743 H         1 <0>         0.1312
     49 H20         0.5585   -5.4142   -6.4707 H         1 <0>         0.1057
     50 H21         1.9354   -4.2850   -6.4452 H         1 <0>         0.1088
     51 H22         1.8617   -8.8864   -9.3472 H         1 <0>         0.1241
     52 H23         1.6769   -7.2636  -10.0548 H         1 <0>         0.1235
     53 H24         3.2406   -7.7610   -9.3652 H         1 <0>         0.1217
     54 H25         6.1119   -3.7004   -3.1885 H         1 <0>         0.1385
     55 H26         8.5547   -3.5957   -3.4513 H         1 <0>         0.1422
     56 H27         8.3505   -6.4159   -6.6489 H         1 <0>         0.1387
     57 H28         5.9079   -6.5437   -6.3945 H         1 <0>         0.1378
     58 H29         0.7456   -7.3941   -7.8640 H         1 <0>         0.4229
@<TRIPOS>BOND
     1    1    2 1
     2    1   31 1
     3    1   32 1
     4    1   33 1
     5    2    3 1
     6    2   34 1
     7    2   35 1
     8    3    4 1
     9    4    9 ar
    10    4    5 ar
    11    5    6 ar
    12    5   36 1
    13    6    7 ar
    14    6   37 1
    15    7    8 ar
    16    7   38 1
    17    8    9 ar
    18    8   11 1
    19    9   10 1
    20   10   39 1
    21   11   12 1
    22   11   17 1
    23   11   13 1
    24   13   14 1
    25   13   40 1
    26   13   41 1
    27   14   15 2
    28   14   24 1
    29   15   16 1
    30   16   22 1
    31   16   17 1
    32   16   18 1
    33   17   42 1
    34   18   19 1
    35   18   43 1
    36   18   44 1
    37   19   20 1
    38   19   45 1
    39   19   46 1
    40   20   21 1
    41   20   23 1
    42   20   58 1
    43   21   22 1
    44   21   47 1
    45   21   48 1
    46   22   49 1
    47   22   50 1
    48   23   51 1
    49   23   52 1
    50   23   53 1
    51   24   29 ar
    52   24   25 ar
    53   25   26 ar
    54   25   54 1
    55   26   27 ar
    56   26   55 1
    57   27   28 ar
    58   27   30 1
    59   28   29 ar
    60   28   56 1
    61   29   57 1
@<TRIPOS>MOLECULE
ZINC12329159
   59    63     0     0     0
SMALL
USER_CHARGES
(4R)-1'-[(2R)-2-hydroxy-2-(1-methylindol-3-yl)ethyl]spiro[chroman-2,4'-piperidine]-4,6-diol
@<TRIPOS>ATOM
      1 C1         -1.0858    5.1832   -0.2477 C.3       1 <0>         0.0701
      2 N1         -0.2423    4.3725   -1.1294 N.pl3     1 <0>        -0.4760
      3 C2          1.0790    4.0909   -0.9124 C.2       1 <0>         0.0924
      4 C3          1.5520    3.3210   -1.9051 C.2       1 <0>        -0.2409
      5 C4          0.4446    3.0960   -2.8373 C.ar      1 <0>        -0.0948
      6 C5         -0.6599    3.7838   -2.3019 C.ar      1 <0>         0.0958
      7 C6         -1.8750    3.7527   -2.9781 C.ar      1 <0>        -0.1193
      8 C7         -1.9830    3.0518   -4.1594 C.ar      1 <0>        -0.0927
      9 C8         -0.8904    2.3750   -4.6834 C.ar      1 <0>        -0.1300
     10 C9          0.3127    2.3919   -4.0354 C.ar      1 <0>        -0.0854
     11 C10         2.9561    2.7897   -2.0362 C.3       1 <0>         0.1748
     12 H1          3.2380    2.7638   -3.0888 H         1 <0>         0.1253
     13 C11         3.0227    1.3757   -1.4555 C.3       1 <0>        -0.0360
     14 C12         4.5569   -0.3811   -0.8071 C.3       1 <0>         0.0003
     15 C13         6.0277   -0.8044   -0.8262 C.3       1 <0>        -0.1298
     16 C14         6.4785   -1.0032   -2.2741 C.3       1 <0>         0.1152
     17 C15         6.2518    0.2902   -3.0590 C.3       1 <0>        -0.1742
     18 C16         4.7741    0.6805   -2.9753 C.3       1 <0>        -0.0004
     19 C17         7.9671   -1.3664   -2.3032 C.3       1 <0>        -0.1417
     20 C18         8.4144   -1.4479   -3.7647 C.3       1 <0>         0.1515
     21 H2          8.4620   -0.4437   -4.1858 H         1 <0>         0.0730
     22 C19         7.4316   -2.2761   -4.5530 C.ar      1 <0>        -0.1783
     23 C20         7.8219   -2.7785   -5.7835 C.ar      1 <0>        -0.1065
     24 C21         6.9415   -3.5332   -6.5412 C.ar      1 <0>         0.0924
     25 C22         5.6634   -3.7875   -6.0655 C.ar      1 <0>        -0.1044
     26 C23         5.2743   -3.2897   -4.8392 C.ar      1 <0>        -0.1256
     27 C24         6.1584   -2.5334   -4.0766 C.ar      1 <0>         0.1207
     28 O1          5.7373   -2.0660   -2.8710 O.3       1 <0>        -0.3045
     29 O2          7.3291   -4.0235   -7.7489 O.3       1 <0>        -0.4951
     30 O3          9.7072   -2.0531   -3.8317 O.3       1 <0>        -0.5501
     31 O4          3.8559    3.6404   -1.3229 O.3       1 <0>        -0.5502
     32 H3         -1.0296    6.2285   -0.5514 H         1 <0>         0.0779
     33 H4         -2.1181    4.8400   -0.3160 H         1 <0>         0.0878
     34 H5         -0.7373    5.0844    0.7804 H         1 <0>         0.0887
     35 H6          1.6549    4.4334   -0.0654 H         1 <0>         0.1697
     36 H7         -2.7309    4.2764   -2.5786 H         1 <0>         0.1246
     37 H8         -2.9272    3.0291   -4.6832 H         1 <0>         0.1321
     38 H9         -0.9918    1.8306   -5.6107 H         1 <0>         0.1280
     39 H10         1.1585    1.8630   -4.4492 H         1 <0>         0.1181
     40 H11         2.7292    1.3998   -0.4061 H         1 <0>         0.1330
     41 H12         2.3454    0.7240   -2.0074 H         1 <0>         0.1425
     42 H13         4.2384   -0.2210    0.2230 H         1 <0>         0.1330
     43 H14         3.9476   -1.1644   -1.2580 H         1 <0>         0.1379
     44 H15         6.1444   -1.7389   -0.2774 H         1 <0>         0.1256
     45 H16         6.6354   -0.0294   -0.3592 H         1 <0>         0.1113
     46 H17         6.5290    0.1363   -4.1018 H         1 <0>         0.1177
     47 H18         6.8630    1.0861   -2.6332 H         1 <0>         0.1085
     48 H19         4.1645   -0.1084   -3.4158 H         1 <0>         0.1349
     49 H20         4.6127    1.6110   -3.5195 H         1 <0>         0.1329
     50 H21         8.5425   -0.5992   -1.7851 H         1 <0>         0.0991
     51 H22         8.1194   -2.3306   -1.8183 H         1 <0>         0.0992
     52 H23         8.8171   -2.5812   -6.1535 H         1 <0>         0.1336
     53 H24         4.9742   -4.3746   -6.6543 H         1 <0>         0.1424
     54 H25         4.2793   -3.4885   -4.4694 H         1 <0>         0.1383
     55 H26         7.7338   -4.9006   -7.7058 H         1 <0>         0.3973
     56 H27        10.0574   -2.1344   -4.7294 H         1 <0>         0.3868
     57 H28         3.6646    3.7109   -0.3777 H         1 <0>         0.3855
     58 N2          4.4128    0.8855   -1.5564 N.4       1 <0>        -0.3907
     59 H29         5.0437    1.5863   -1.1501 H         1 <0>         0.4288
@<TRIPOS>BOND
     1    1    2 1
     2    1   32 1
     3    1   33 1
     4    1   34 1
     5    2    6 1
     6    2    3 1
     7    3    4 2
     8    3   35 1
     9    4    5 1
    10    4   11 1
    11    5   10 ar
    12    5    6 ar
    13    6    7 ar
    14    7    8 ar
    15    7   36 1
    16    8    9 ar
    17    8   37 1
    18    9   10 ar
    19    9   38 1
    20   10   39 1
    21   11   12 1
    22   11   13 1
    23   11   31 1
    24   13   40 1
    25   13   41 1
    26   13   58 1
    27   14   15 1
    28   14   42 1
    29   14   43 1
    30   14   58 1
    31   15   16 1
    32   15   44 1
    33   15   45 1
    34   16   28 1
    35   16   17 1
    36   16   19 1
    37   17   18 1
    38   17   46 1
    39   17   47 1
    40   18   48 1
    41   18   49 1
    42   18   58 1
    43   19   20 1
    44   19   50 1
    45   19   51 1
    46   20   21 1
    47   20   22 1
    48   20   30 1
    49   22   27 ar
    50   22   23 ar
    51   23   24 ar
    52   23   52 1
    53   24   25 ar
    54   24   29 1
    55   25   26 ar
    56   25   53 1
    57   26   27 ar
    58   26   54 1
    59   27   28 1
    60   29   55 1
    61   30   56 1
    62   31   57 1
    63   58   59 1
@<TRIPOS>MOLECULE
ZINC39354231
   54    57     0     0     0
SMALL
USER_CHARGES

@<TRIPOS>ATOM
      1 C1         -0.0187    1.5258    0.0104 C.3       1 <0>        -0.1586
      2 C2          0.0021   -0.0041    0.0020 C.3       1 <0>        -0.0913
      3 C3          0.7309   -0.5033    1.2229 C.ar      1 <0>        -0.1365
      4 C4          2.0468   -0.8040    1.1603 C.ar      1 <0>         0.0158
      5 C5          2.7550   -1.2713    2.2775 C.ar      1 <0>        -0.0902
      6 C6          2.1701   -1.4509    3.4856 C.ar      1 <0>        -0.0761
      7 C7          0.7985   -1.1669    3.6619 C.ar      1 <0>        -0.0449
      8 C8         -0.0500   -1.2530    4.7558 C.2       1 <0>        -0.0543
      9 C9         -1.4024   -0.7940    4.2560 C.3       1 <0>         0.0784
     10 N1         -1.2208   -0.4613    2.8397 N.pl3     1 <0>        -0.5336
     11 C10         0.0206   -0.6647    2.5030 C.ar      1 <0>         0.3186
     12 C11         0.2787   -1.6795    6.0603 C.2       1 <0>         0.3887
     13 O1          1.4166   -2.0233    6.3192 O.2       1 <0>        -0.3508
     14 C12        -0.7675   -1.7088    7.1201 C.2       1 <0>         0.4910
     15 O2         -1.9032   -1.3658    6.8616 O.2       1 <0>        -0.4954
     16 N2         -0.4535   -2.1161    8.3658 N.am      1 <0>        -0.6737
     17 C13        -1.4826   -2.1449    9.4082 C.3       1 <0>         0.1943
     18 H1         -2.4767   -2.0559    8.9701 H         1 <0>         0.1498
     19 C14        -1.3703   -3.4305   10.2513 C.3       1 <0>        -0.1145
     20 H2         -2.1587   -4.1181    9.9451 H         1 <0>         0.1240
     21 C15        -1.4869   -3.1935   11.7366 C.3       1 <0>        -0.1193
     22 H3         -0.4699   -3.4020   12.0690 H         1 <0>         0.1073
     23 C16        -2.2641   -4.2277   12.4853 C.3       1 <0>        -0.0956
     24 C17        -3.6557   -3.8012   12.9112 C.3       1 <0>        -0.1213
     25 C18        -3.6305   -2.4086   13.5358 C.3       1 <0>        -0.1185
     26 C19        -3.0990   -1.4145   12.5027 C.3       1 <0>        -0.1114
     27 C20        -1.6631   -1.7502   12.1746 C.3       1 <0>         0.0092
     28 H4         -1.0067   -1.5047   13.0094 H         1 <0>         0.1214
     29 S1         -1.1942   -0.8153   10.6457 S.3       1 <0>        -0.2880
     30 C21        -0.0365   -4.0744    9.9728 C.2       1 <0>         0.5147
     31 O3          0.7665   -4.2185   10.8702 O.2       1 <0>        -0.5037
     32 N3          0.2639   -4.4902    8.7265 N.am      1 <0>        -0.8539
     33 H5          1.0039    1.9031    0.0027 H         1 <0>         0.0691
     34 H6         -0.5459    1.8868   -0.8726 H         1 <0>         0.0780
     35 H7         -0.5289    1.8773    0.9072 H         1 <0>         0.0507
     36 H8         -1.0205   -0.3814    0.0098 H         1 <0>         0.0787
     37 H9          0.5123   -0.3556   -0.8948 H         1 <0>         0.1041
     38 H10         2.5685   -0.6813    0.2226 H         1 <0>         0.1684
     39 H11         3.8058   -1.4966    2.1701 H         1 <0>         0.1630
     40 H12         2.7554   -1.8133    4.3177 H         1 <0>         0.1685
     41 H13        -2.1334   -1.5955    4.3623 H         1 <0>         0.1930
     42 H14        -1.7276    0.0869    4.8095 H         1 <0>         0.1930
     43 H15         0.4537   -2.3902    8.5723 H         1 <0>         0.4224
     44 H16        -2.3537   -5.1127   11.8554 H         1 <0>         0.0654
     45 H17        -1.7007   -4.5018   13.3773 H         1 <0>         0.0720
     46 H18        -4.3100   -3.7913   12.0395 H         1 <0>         0.0616
     47 H19        -4.0416   -4.5140   13.6400 H         1 <0>         0.0704
     48 H20        -4.6398   -2.1229   13.8322 H         1 <0>         0.0733
     49 H21        -2.9783   -2.4117   14.4091 H         1 <0>         0.0681
     50 H22        -3.6989   -1.4782   11.5950 H         1 <0>         0.0727
     51 H23        -3.1581   -0.4039   12.9070 H         1 <0>         0.0768
     52 H24        -0.3783   -4.3750    8.0088 H         1 <0>         0.3989
     53 H25         1.1224   -4.9047    8.5472 H         1 <0>         0.4102
     54 H26        -1.9162   -0.1359    2.2468 H         1 <0>         0.4601
@<TRIPOS>BOND
     1    1    2 1
     2    1   33 1
     3    1   34 1
     4    1   35 1
     5    2    3 1
     6    2   36 1
     7    2   37 1
     8    3   11 ar
     9    3    4 ar
    10    4    5 ar
    11    4   38 1
    12    5    6 ar
    13    5   39 1
    14    6    7 ar
    15    6   40 1
    16    7   11 ar
    17    7    8 2
    18    8    9 1
    19    8   12 1
    20    9   10 1
    21    9   41 1
    22    9   42 1
    23   10   11 2
    24   10   54 1
    25   12   13 2
    26   12   14 1
    27   14   15 2
    28   14   16 am
    29   16   17 1
    30   16   43 1
    31   17   18 1
    32   17   29 1
    33   17   19 1
    34   19   20 1
    35   19   21 1
    36   19   30 1
    37   21   22 1
    38   21   27 1
    39   21   23 1
    40   23   24 1
    41   23   44 1
    42   23   45 1
    43   24   25 1
    44   24   46 1
    45   24   47 1
    46   25   26 1
    47   25   48 1
    48   25   49 1
    49   26   27 1
    50   26   50 1
    51   26   51 1
    52   27   28 1
    53   27   29 1
    54   30   31 2
    55   30   32 am
    56   32   52 1
    57   32   53 1
@<TRIPOS>MOLECULE
ZINC39727287
   59    63     0     0     0
SMALL
USER_CHARGES

@<TRIPOS>ATOM
      1 C1         -0.0187    1.5258    0.0104 C.3       1 <0>        -0.1982
      2 C2          0.0021   -0.0041    0.0020 C.3       1 <0>         0.0052
      3 H1          0.5123   -0.3556   -0.8948 H         1 <0>         0.1713
      4 C3          0.7309   -0.5033    1.2229 C.2       1 <0>         0.5102
      5 O1          0.1586   -1.2129    2.0230 O.2       1 <0>        -0.5003
      6 N1          2.0187   -0.1613    1.4257 N.am      1 <0>        -0.5307
      7 C4          2.7334    0.7026    0.4742 C.3       1 <0>         0.0766
      8 C5          4.1251    0.1614    0.2687 C.2       1 <0>         0.5094
      9 O2          4.6899    0.3472   -0.7886 O.2       1 <0>        -0.4975
     10 N2          4.7492   -0.5252    1.2442 N.am      1 <0>        -0.6538
     11 C6          4.1023   -0.7959    2.4548 C.ar      1 <0>         0.1415
     12 C7          2.7191   -0.6135    2.5550 C.ar      1 <0>         0.0843
     13 C8          2.0634   -0.8779    3.7435 C.ar      1 <0>        -0.0811
     14 C9          2.7825   -1.3187    4.8407 C.ar      1 <0>        -0.1182
     15 C10         4.1509   -1.4942    4.7502 C.ar      1 <0>        -0.0803
     16 C11         4.8159   -1.2393    3.5563 C.ar      1 <0>        -0.1301
     17 N3         -1.3761   -0.5125    0.0124 N.4       1 <0>        -0.4953
     18 C12        -2.0500   -0.1262   -1.2343 C.3       1 <0>        -0.0122
     19 C13        -3.4854   -0.6557   -1.2235 C.3       1 <0>         0.0004
     20 H2         -3.4743   -1.7319   -1.0509 H         1 <0>         0.1173
     21 C14        -4.2742    0.0317   -0.1072 C.3       1 <0>        -0.0684
     22 H3         -3.7730   -0.0742    0.8550 H         1 <0>         0.1014
     23 C15        -5.7375   -0.4805   -0.0459 C.3       1 <0>        -0.0991
     24 C16        -6.6789    0.6409    0.2556 C.2       1 <0>        -0.1628
     25 C17        -6.2920    1.8888    0.0762 C.2       1 <0>        -0.1219
     26 S1         -4.6067    1.7997   -0.5049 S.3       1 <0>        -0.1948
     27 C18        -4.1376   -0.3665   -2.5509 C.2       1 <0>        -0.2163
     28 C19        -4.6822   -1.3526   -3.4874 C.ar      1 <0>        -0.0901
     29 C20        -4.7790   -2.7451   -3.4826 C.ar      1 <0>        -0.0866
     30 C21        -5.3604   -3.3884   -4.5389 C.ar      1 <0>        -0.1311
     31 C22        -5.8553   -2.6682   -5.6172 C.ar      1 <0>        -0.0957
     32 C23        -5.7701   -1.2932   -5.6425 C.ar      1 <0>        -0.1212
     33 C24        -5.1827   -0.6178   -4.5780 C.ar      1 <0>         0.0924
     34 N4         -4.9527    0.7132   -4.3107 N.pl3     1 <0>        -0.5868
     35 C25        -4.3349    0.8439   -3.0968 C.2       1 <0>         0.1103
     36 H4          1.0039    1.9031    0.0027 H         1 <0>         0.1164
     37 H5         -0.5459    1.8868   -0.8726 H         1 <0>         0.1057
     38 H6         -0.5289    1.8773    0.9072 H         1 <0>         0.0979
     39 H7          2.2024    0.7143   -0.4776 H         1 <0>         0.1334
     40 H8          2.7912    1.7152    0.8734 H         1 <0>         0.1297
     41 H9          5.6578   -0.8355    1.1063 H         1 <0>         0.4234
     42 H10         0.9946   -0.7406    3.8153 H         1 <0>         0.1475
     43 H11         2.2734   -1.5258    5.7704 H         1 <0>         0.1388
     44 H12         4.7065   -1.8366    5.6107 H         1 <0>         0.1403
     45 H13         5.8850   -1.3771    3.4889 H         1 <0>         0.1426
     46 H14        -1.3629   -1.5185    0.0898 H         1 <0>         0.4371
     47 H15        -2.0643    0.9605   -1.3179 H         1 <0>         0.1382
     48 H16        -1.5132   -0.5489   -2.0836 H         1 <0>         0.1485
     49 H17        -6.0030   -0.9240   -1.0055 H         1 <0>         0.1092
     50 H18        -5.8203   -1.2381    0.7333 H         1 <0>         0.0940
     51 H19        -7.6734    0.4295    0.6198 H         1 <0>         0.1396
     52 H20        -6.8751    2.7818    0.2465 H         1 <0>         0.1749
     53 H21        -4.3955   -3.3122   -2.6473 H         1 <0>         0.1186
     54 H22        -5.4351   -4.4658   -4.5347 H         1 <0>         0.1260
     55 H23        -6.3115   -3.1909   -6.4450 H         1 <0>         0.1300
     56 H24        -6.1578   -0.7418   -6.4863 H         1 <0>         0.1242
     57 H25        -4.0461    1.7818   -2.6459 H         1 <0>         0.1836
     58 H26        -5.1962    1.4489   -4.8941 H         1 <0>         0.4222
     59 H27        -1.8730   -0.1212    0.7986 H         1 <0>         0.4305
@<TRIPOS>BOND
     1    1    2 1
     2    1   36 1
     3    1   37 1
     4    1   38 1
     5    2    3 1
     6    2    4 1
     7    2   17 1
     8    4    5 2
     9    4    6 am
    10    6   12 1
    11    6    7 1
    12    7    8 1
    13    7   39 1
    14    7   40 1
    15    8    9 2
    16    8   10 am
    17   10   11 1
    18   10   41 1
    19   11   16 ar
    20   11   12 ar
    21   12   13 ar
    22   13   14 ar
    23   13   42 1
    24   14   15 ar
    25   14   43 1
    26   15   16 ar
    27   15   44 1
    28   16   45 1
    29   17   18 1
    30   17   46 1
    31   17   59 1
    32   18   19 1
    33   18   47 1
    34   18   48 1
    35   19   20 1
    36   19   21 1
    37   19   27 1
    38   21   22 1
    39   21   26 1
    40   21   23 1
    41   23   24 1
    42   23   49 1
    43   23   50 1
    44   24   25 2
    45   24   51 1
    46   25   26 1
    47   25   52 1
    48   27   28 1
    49   27   35 2
    50   28   29 ar
    51   28   33 ar
    52   29   30 ar
    53   29   53 1
    54   30   31 ar
    55   30   54 1
    56   31   32 ar
    57   31   55 1
    58   32   33 ar
    59   32   56 1
    60   33   34 1
    61   34   58 1
    62   34   35 1
    63   35   57 1
@<TRIPOS>MOLECULE
ZINC17043337
   53    56     0     0     0
SMALL
USER_CHARGES

@<TRIPOS>ATOM
      1 C1         -0.0962    1.5005    0.0063 C.3       1 <0>        -0.1400
      2 C2         -0.0534   -0.0058   -0.0010 C.ar      1 <0>         0.0176
      3 C3         -0.0199   -0.6829   -1.2030 C.ar      1 <0>        -0.1150
      4 C4          0.0195   -2.0705   -1.2160 C.ar      1 <0>         0.1690
      5 C5          0.0249   -2.7696   -0.0009 C.ar      1 <0>        -0.1810
      6 C6         -0.0094   -2.0790    1.2057 C.ar      1 <0>        -0.0390
      7 C7         -0.0423   -0.6985    1.2002 C.ar      1 <0>        -0.0497
      8 Cl1        -0.0771    0.1723    2.7016 Cl        1 <0>        -0.0138
      9 C8          0.0672   -4.2500   -0.0399 C.2       1 <0>         0.3763
     10 N1          0.0740   -4.9639    1.0639 N.pl3     1 <0>        -0.5432
     11 C9         -0.0172   -6.4243    0.9923 C.3       1 <0>         0.0220
     12 H1         -0.0004   -6.7387   -0.0512 H         1 <0>         0.1181
     13 C10        -1.3225   -6.8863    1.6432 C.3       1 <0>        -0.0627
     14 C11        -2.4919   -6.3742    0.8424 C.2       1 <0>         0.0327
     15 C12        -3.0606   -5.1592    0.9608 C.2       1 <0>         0.0197
     16 N2         -4.0821   -5.1098    0.0509 N.pl3     1 <0>        -0.5075
     17 H2         -4.6799   -4.3616   -0.1032 H         1 <0>         0.4680
     18 C13        -4.1019   -6.2970   -0.5923 C.cat     1 <0>         0.3123
     19 N3         -3.1449   -7.0463   -0.1172 N.pl3     1 <0>        -0.4707
     20 C14         1.1515   -7.0369    1.7204 C.2       1 <0>         0.4923
     21 O1          1.6545   -6.4536    2.6655 O.co2     1 <0>        -0.6503
     22 O2          1.5939   -8.1157    1.3643 O.co2     1 <0>        -0.6362
     23 C15         0.0999   -4.8678   -1.3228 C.2       1 <0>        -0.3177
     24 C16         0.0912   -4.0934   -2.4350 C.2       1 <0>         0.2978
     25 O3          0.0522   -2.7506   -2.3829 O.3       1 <0>        -0.2015
     26 C17         0.1258   -4.7504   -3.7561 C.ar      1 <0>        -0.0823
     27 C18         0.1609   -6.1443   -3.8441 C.ar      1 <0>        -0.0838
     28 C19         0.1933   -6.7562   -5.0788 C.ar      1 <0>        -0.1115
     29 C20         0.1912   -5.9908   -6.2365 C.ar      1 <0>         0.1372
     30 C21         0.1563   -4.6000   -6.1561 C.ar      1 <0>         0.1033
     31 C22         0.1179   -3.9800   -4.9217 C.ar      1 <0>        -0.1430
     32 O4          0.1548   -3.8530   -7.2925 O.3       1 <0>        -0.2964
     33 C23         0.1181   -2.4331   -7.1355 C.3       1 <0>         0.0194
     34 O5          0.2237   -6.5989   -7.4512 O.3       1 <0>        -0.4771
     35 H3          0.9207    1.8929    0.0154 H         1 <0>         0.1018
     36 H4         -0.6139    1.8537   -0.8855 H         1 <0>         0.0904
     37 H5         -0.6263    1.8446    0.8943 H         1 <0>         0.0917
     38 H6         -0.0248   -0.1336   -2.1329 H         1 <0>         0.1694
     39 H7         -0.0055   -2.6188    2.1412 H         1 <0>         0.1567
     40 H8         -1.3496   -7.9757    1.6697 H         1 <0>         0.1339
     41 H9         -1.3796   -6.4966    2.6595 H         1 <0>         0.1290
     42 H10        -2.7675   -4.3748    1.6428 H         1 <0>         0.2200
     43 H11        -4.7927   -6.5783   -1.3734 H         1 <0>         0.2700
     44 H12         0.1316   -5.9439   -1.4086 H         1 <0>         0.1843
     45 H13         0.1630   -6.7423   -2.9448 H         1 <0>         0.1416
     46 H14         0.2207   -7.8338   -5.1455 H         1 <0>         0.1580
     47 H15         0.0864   -2.9023   -4.8580 H         1 <0>         0.1497
     48 H16         0.9923   -2.1071   -6.5720 H         1 <0>         0.0614
     49 H17         0.1210   -1.9588   -8.1169 H         1 <0>         0.1127
     50 H18        -0.7869   -2.1502   -6.5979 H         1 <0>         0.0586
     51 H19        -0.6500   -6.7966   -7.8155 H         1 <0>         0.4025
     52 H20         0.1393   -4.5237    1.9258 H         1 <0>         0.4358
     53 H21        -2.9395   -7.9478   -0.4104 H         1 <0>         0.4692
@<TRIPOS>BOND
     1    1    2 1
     2    1   35 1
     3    1   36 1
     4    1   37 1
     5    2    7 ar
     6    2    3 ar
     7    3    4 ar
     8    3   38 1
     9    4   25 1
    10    4    5 ar
    11    5    6 ar
    12    5    9 1
    13    6    7 ar
    14    6   39 1
    15    7    8 1
    16    9   10 2
    17    9   23 1
    18   10   11 1
    19   10   52 1
    20   11   12 1
    21   11   13 1
    22   11   20 1
    23   13   14 1
    24   13   40 1
    25   13   41 1
    26   14   19 1
    27   14   15 2
    28   15   16 1
    29   15   42 1
    30   16   17 1
    31   16   18 1
    32   18   19 2
    33   18   43 1
    34   19   53 1
    35   20   21 2
    36   20   22 1
    37   23   24 2
    38   23   44 1
    39   24   25 1
    40   24   26 1
    41   26   31 ar
    42   26   27 ar
    43   27   28 ar
    44   27   45 1
    45   28   29 ar
    46   28   46 1
    47   29   30 ar
    48   29   34 1
    49   30   31 ar
    50   30   32 1
    51   31   47 1
    52   32   33 1
    53   33   48 1
    54   33   49 1
    55   33   50 1
    56   34   51 1
@<TRIPOS>MOLECULE
ZINC64723067
   49    52     0     0     0
SMALL
USER_CHARGES

@<TRIPOS>ATOM
      1 C1         -0.0163    1.3482    0.0095 C.ar      1 <0>        -0.1465
      2 C2          1.1658    2.1014    0.0022 C.ar      1 <0>         0.0578
      3 C3          2.3912    1.5352   -0.0125 C.ar      1 <0>        -0.2093
      4 C4          2.5288    0.1198   -0.0218 C.ar      1 <0>         0.3314
      5 N1          3.5868   -0.6543   -0.0369 N.pl3     1 <0>        -0.5808
      6 C5          3.1432   -2.0528   -0.0408 C.3       1 <0>         0.0545
      7 C6          1.6315   -2.0084   -0.0255 C.2       1 <0>         0.0704
      8 C7          1.2951   -0.6984   -0.0144 C.ar      1 <0>        -0.1544
      9 C8          0.0021   -0.0041    0.0020 C.ar      1 <0>        -0.0144
     10 C9          0.6905   -3.1856   -0.0239 C.3       1 <0>        -0.0275
     11 H1         -0.3390   -2.8277   -0.0118 H         1 <0>         0.1327
     12 C10         0.9474   -4.0421    1.2175 C.3       1 <0>         0.1336
     13 N2         -0.0445   -5.1184    1.2820 N.pl3     1 <0>        -0.7146
     14 C11        -0.0125   -6.0311    2.3299 C.ar      1 <0>         0.4481
     15 C12         0.9606   -5.9134    3.3173 C.ar      1 <0>        -0.2592
     16 C13         0.9808   -6.8284    4.3542 C.ar      1 <0>         0.0669
     17 C14         0.0234   -7.8344    4.3691 C.ar      1 <0>        -0.7845
     18 C15        -0.9130   -7.8916    3.3567 C.ar      1 <0>         0.2622
     19 N3         -0.9117   -7.0015    2.3824 N.ar      1 <0>        -0.5458
     20 S1          0.0049   -9.0261    5.6669 S.o2      1 <0>         2.7114
     21 O1         -0.6505  -10.1770    5.1521 O.2       1 <0>        -0.9590
     22 O2          1.3234   -9.0723    6.1946 O.2       1 <0>        -0.9624
     23 N4         -0.9649   -8.4268    6.8680 N.pl3     1 <0>        -1.2499
     24 C16         0.9199   -4.0138   -1.2619 C.ar      1 <0>        -0.1010
     25 C17         2.1583   -4.5827   -1.4933 C.ar      1 <0>        -0.1115
     26 C18         2.3689   -5.3423   -2.6287 C.ar      1 <0>        -0.1017
     27 C19         1.3412   -5.5337   -3.5335 C.ar      1 <0>        -0.0862
     28 C20         0.1027   -4.9654   -3.3033 C.ar      1 <0>        -0.0953
     29 C21        -0.1103   -4.2096   -2.1640 C.ar      1 <0>        -0.0235
     30 Cl1        -1.6677   -3.5009   -1.8706 Cl        1 <0>        -0.0510
     31 H2         -0.9665    1.8612    0.0259 H         1 <0>         0.1599
     32 H3          1.0933    3.1789    0.0083 H         1 <0>         0.1632
     33 H4          3.2717    2.1606   -0.0175 H         1 <0>         0.1630
     34 H5          3.4952   -2.5561   -0.9413 H         1 <0>         0.1755
     35 H6          3.5129   -2.5667    0.8465 H         1 <0>         0.1756
     36 H7         -0.9210   -0.5647    0.0081 H         1 <0>         0.1596
     37 H8          1.9473   -4.4724    1.1616 H         1 <0>         0.0819
     38 H9          0.8684   -3.4213    2.1100 H         1 <0>         0.0860
     39 H10        -0.7234   -5.1941    0.5934 H         1 <0>         0.4135
     40 H11         1.6906   -5.1186    3.2745 H         1 <0>         0.1385
     41 H12         1.7245   -6.7623    5.1345 H         1 <0>         0.1557
     42 H13        -1.6591   -8.6725    3.3643 H         1 <0>         0.1804
     43 H14        -1.3919   -7.5625    6.7607 H         1 <0>         0.4156
     44 H15        -1.1059   -8.9401    7.6789 H         1 <0>         0.4236
     45 H16         2.9616   -4.4333   -0.7871 H         1 <0>         0.1306
     46 H17         3.3367   -5.7863   -2.8093 H         1 <0>         0.1399
     47 H18         1.5064   -6.1271   -4.4207 H         1 <0>         0.1439
     48 H19        -0.7000   -5.1147   -4.0103 H         1 <0>         0.1458
     49 H20         4.5087   -0.3528   -0.0446 H         1 <0>         0.4576
@<TRIPOS>BOND
     1    1    9 ar
     2    1    2 ar
     3    1   31 1
     4    2    3 ar
     5    2   32 1
     6    3    4 ar
     7    3   33 1
     8    4    8 ar
     9    4    5 2
    10    5    6 1
    11    5   49 1
    12    6    7 1
    13    6   34 1
    14    6   35 1
    15    7    8 2
    16    7   10 1
    17    8    9 ar
    18    9   36 1
    19   10   11 1
    20   10   12 1
    21   10   24 1
    22   12   13 1
    23   12   37 1
    24   12   38 1
    25   13   14 1
    26   13   39 1
    27   14   19 ar
    28   14   15 ar
    29   15   16 ar
    30   15   40 1
    31   16   17 ar
    32   16   41 1
    33   17   18 ar
    34   17   20 1
    35   18   19 ar
    36   18   42 1
    37   20   21 2
    38   20   22 2
    39   20   23 1
    40   23   43 1
    41   23   44 1
    42   24   29 ar
    43   24   25 ar
    44   25   26 ar
    45   25   45 1
    46   26   27 ar
    47   26   46 1
    48   27   28 ar
    49   27   47 1
    50   28   29 ar
    51   28   48 1
    52   29   30 1
@<TRIPOS>MOLECULE
ZINC17242637
   56    60     0     0     0
SMALL
USER_CHARGES

@<TRIPOS>ATOM
      1 C1         -0.0187    1.5258    0.0104 C.3       1 <0>        -0.1462
      2 C2          0.0021   -0.0041    0.0020 C.3       1 <0>        -0.0527
      3 C3         -1.4326   -0.5358    0.0255 C.3       1 <0>        -0.0914
      4 C4         -1.4101   -2.0450    0.0652 C.2       1 <0>         0.2305
      5 C5         -0.3576   -2.7019    0.6738 C.2       1 <0>        -0.2660
      6 C6         -0.3852   -4.2184    0.6888 C.3       1 <0>         0.2582
      7 H1          0.5163   -4.5799    0.1941 H         1 <0>         0.1245
      8 N1         -1.5445   -4.8466    0.0442 N.pl3     1 <0>        -0.3661
      9 C7         -2.5078   -4.0439   -0.5179 C.cat     1 <0>         0.6102
     10 N2         -2.4065   -2.7213   -0.4873 N.pl3     1 <0>        -0.5503
     11 N3         -3.4470   -4.8474   -1.0342 N.2       1 <0>        -0.5130
     12 C8         -3.1315   -6.1145   -0.8300 C.2       1 <0>         0.3732
     13 N4         -1.9430   -6.1709   -0.1551 N.pl3     1 <0>        -0.4036
     14 S1         -4.0861   -7.5040   -1.3427 S.3       1 <0>         0.1300
     15 C9         -5.5220   -6.7681   -2.1717 C.3       1 <0>        -0.0703
     16 C10        -6.4325   -7.8628   -2.6654 C.ar      1 <0>        -0.1415
     17 C11        -6.2565   -8.3902   -3.9308 C.ar      1 <0>        -0.0638
     18 C12        -7.0914   -9.3942   -4.3840 C.ar      1 <0>        -0.1263
     19 C13        -8.1036   -9.8721   -3.5722 C.ar      1 <0>        -0.0628
     20 C14        -8.2812   -9.3467   -2.3066 C.ar      1 <0>        -0.1513
     21 C15        -7.4419   -8.3444   -1.8496 C.ar      1 <0>         0.1258
     22 F1         -7.6117   -7.8331   -0.6107 F         1 <0>        -0.1299
     23 C16        -0.3455   -4.6752    2.1243 C.ar      1 <0>        -0.1591
     24 C17        -1.5017   -4.6697    2.8826 C.ar      1 <0>        -0.0848
     25 C18        -1.4679   -5.0876    4.1989 C.ar      1 <0>        -0.1461
     26 C19        -0.2726   -5.5134    4.7597 C.ar      1 <0>         0.1403
     27 C20         0.8860   -5.5185    3.9967 C.ar      1 <0>        -0.1417
     28 C21         0.8459   -5.1045    2.6793 C.ar      1 <0>        -0.0420
     29 O1         -0.2366   -5.9246    6.0545 O.3       1 <0>        -0.4938
     30 C22         0.6987   -2.0199    1.2548 C.2       1 <0>         0.4149
     31 O2          1.6007   -2.6438    1.7818 O.2       1 <0>        -0.4436
     32 C23         0.7426   -0.5135    1.2423 C.3       1 <0>        -0.1557
     33 C24         0.7135   -0.4996   -1.2586 C.3       1 <0>        -0.1574
     34 H2          1.0039    1.9031    0.0027 H         1 <0>         0.0730
     35 H3         -0.5459    1.8868   -0.8726 H         1 <0>         0.0681
     36 H4         -0.5289    1.8773    0.9072 H         1 <0>         0.0668
     37 H5         -1.9461   -0.1568    0.9091 H         1 <0>         0.1242
     38 H6         -1.9578   -0.2038   -0.8701 H         1 <0>         0.1110
     39 H7         -6.0629   -6.1353   -1.4681 H         1 <0>         0.1247
     40 H8         -5.1853   -6.1670   -3.0163 H         1 <0>         0.1291
     41 H9         -5.4665   -8.0175   -4.5659 H         1 <0>         0.1410
     42 H10        -6.9534   -9.8055   -5.3730 H         1 <0>         0.1412
     43 H11        -8.7558  -10.6561   -3.9275 H         1 <0>         0.1436
     44 H12        -9.0720   -9.7199   -1.6728 H         1 <0>         0.1462
     45 H13        -2.4320   -4.3381    2.4455 H         1 <0>         0.1102
     46 H14        -2.3711   -5.0824    4.7909 H         1 <0>         0.1369
     47 H15         1.8178   -5.8495    4.4310 H         1 <0>         0.1420
     48 H16         1.7467   -5.1124    2.0836 H         1 <0>         0.1391
     49 H17        -0.3999   -6.8705    6.1715 H         1 <0>         0.4008
     50 H18         1.7796   -0.1794    1.2109 H         1 <0>         0.1132
     51 H19         0.2601   -0.1264    2.1398 H         1 <0>         0.1123
     52 H20         1.7363   -0.1230   -1.2704 H         1 <0>         0.0743
     53 H21         0.7275   -1.5895   -1.2633 H         1 <0>         0.0517
     54 H22         0.1835   -0.1393   -2.1403 H         1 <0>         0.0684
     55 H23        -3.1186   -2.2090   -0.9015 H         1 <0>         0.4527
     56 H24        -1.4715   -6.9699    0.1282 H         1 <0>         0.4815
@<TRIPOS>BOND
     1    1    2 1
     2    1   34 1
     3    1   35 1
     4    1   36 1
     5    2   32 1
     6    2    3 1
     7    2   33 1
     8    3    4 1
     9    3   37 1
    10    3   38 1
    11    4   10 1
    12    4    5 2
    13    5    6 1
    14    5   30 1
    15    6    7 1
    16    6    8 1
    17    6   23 1
    18    8   13 1
    19    8    9 1
    20    9   10 2
    21    9   11 1
    22   10   55 1
    23   11   12 2
    24   12   13 1
    25   12   14 1
    26   13   56 1
    27   14   15 1
    28   15   16 1
    29   15   39 1
    30   15   40 1
    31   16   21 ar
    32   16   17 ar
    33   17   18 ar
    34   17   41 1
    35   18   19 ar
    36   18   42 1
    37   19   20 ar
    38   19   43 1
    39   20   21 ar
    40   20   44 1
    41   21   22 1
    42   23   28 ar
    43   23   24 ar
    44   24   25 ar
    45   24   45 1
    46   25   26 ar
    47   25   46 1
    48   26   27 ar
    49   26   29 1
    50   27   28 ar
    51   27   47 1
    52   28   48 1
    53   29   49 1
    54   30   31 2
    55   30   32 1
    56   32   50 1
    57   32   51 1
    58   33   52 1
    59   33   53 1
    60   33   54 1
@<TRIPOS>MOLECULE
ZINC39638572
   63    66     0     0     0
SMALL
USER_CHARGES

@<TRIPOS>ATOM
      1 C1          4.1729    4.8304    6.0005 C.3       1 <0>        -0.1472
      2 C2          3.5997    4.8600    4.5822 C.3       1 <0>         0.0480
      3 O1          3.0524    3.5792    4.2629 O.3       1 <0>        -0.3164
      4 C3          2.4988    3.4347    3.0301 C.ar      1 <0>         0.1411
      5 C4          2.4879    4.5022    2.1438 C.ar      1 <0>        -0.2093
      6 C5          1.9252    4.3528    0.8913 C.ar      1 <0>        -0.0665
      7 C6          1.3729    3.1404    0.5204 C.ar      1 <0>        -0.1514
      8 C7          1.3821    2.0754    1.4018 C.ar      1 <0>        -0.0604
      9 C8          1.9489    2.2182    2.6537 C.ar      1 <0>        -0.1470
     10 C9          1.9642    1.0550    3.6117 C.3       1 <0>         0.1725
     11 N1          0.8754    1.2056    4.5802 N.am      1 <0>        -0.7213
     12 C10         0.6938    0.2769    5.5398 C.2       1 <0>         0.5123
     13 O2          1.4318   -0.6835    5.6017 O.2       1 <0>        -0.5108
     14 C11        -0.4263    0.4319    6.5361 C.3       1 <0>        -0.1141
     15 H1         -1.2862    0.9108    6.0678 H         1 <0>         0.1176
     16 C12        -0.8258   -0.9440    7.1147 C.3       1 <0>         0.1206
     17 N2         -0.0548   -1.0583    8.3750 N.am      1 <0>        -0.6141
     18 C13        -0.0995    0.3036    8.9593 C.3       1 <0>         0.0915
     19 C14         0.0463    1.2489    7.7503 C.3       1 <0>        -0.0730
     20 C15        -0.8349    2.4808    7.9337 C.3       1 <0>        -0.1351
     21 C16        -0.3100    3.3077    9.1108 C.3       1 <0>        -0.0097
     22 N3          1.0778    3.7084    8.8495 N.4       1 <0>        -0.5058
     23 C17         1.9351    2.5197    8.7670 C.3       1 <0>        -0.0097
     24 C18         1.5052    1.6596    7.5754 C.3       1 <0>        -0.1495
     25 C19         0.5501   -2.1531    8.8770 C.2       1 <0>         0.5845
     26 O3          0.6058   -3.1728    8.2177 O.2       1 <0>        -0.5020
     27 C20         1.1459   -2.1138   10.2295 C.ar      1 <0>        -0.1250
     28 C21         0.7329   -1.1486   11.1496 C.ar      1 <0>        -0.0966
     29 C22         1.2925   -1.1170   12.4100 C.ar      1 <0>        -0.1211
     30 C23         2.2618   -2.0390   12.7635 C.ar      1 <0>        -0.0632
     31 C24         2.6764   -2.9985   11.8561 C.ar      1 <0>        -0.0948
     32 C25         2.1193   -3.0450   10.5936 C.ar      1 <0>        -0.0304
     33 Br1         4.0027   -4.2530   12.3492 Br        1 <0>        -0.0252
     34 H2          4.9567    4.0753    6.0599 H         1 <0>         0.0717
     35 H3          4.5904    5.8074    6.2441 H         1 <0>         0.0840
     36 H4          3.3800    4.5875    6.7078 H         1 <0>         0.0462
     37 H5          2.8159    5.6151    4.5228 H         1 <0>         0.0633
     38 H6          4.3926    5.1029    3.8748 H         1 <0>         0.0686
     39 H7          2.9188    5.4494    2.4332 H         1 <0>         0.1297
     40 H8          1.9161    5.1835    0.2012 H         1 <0>         0.1303
     41 H9          0.9334    3.0255   -0.4594 H         1 <0>         0.1309
     42 H10         0.9499    1.1297    1.1098 H         1 <0>         0.1339
     43 H11         1.8315    0.1259    3.0573 H         1 <0>         0.0790
     44 H12         2.9182    1.0306    4.1384 H         1 <0>         0.0802
     45 H13         0.2851    1.9738    4.5307 H         1 <0>         0.3976
     46 H14        -1.8959   -0.9738    7.3198 H         1 <0>         0.0890
     47 H15        -0.5478   -1.7413    6.4255 H         1 <0>         0.1045
     48 H16        -1.0531    0.4717    9.4597 H         1 <0>         0.0900
     49 H17         0.7269    0.4461    9.6557 H         1 <0>         0.0926
     50 H18        -0.8108    3.0838    7.0260 H         1 <0>         0.0982
     51 H19        -1.8593    2.1684    8.1366 H         1 <0>         0.1231
     52 H20        -0.9278    4.1972    9.2337 H         1 <0>         0.1406
     53 H21        -0.3499    2.7095   10.0211 H         1 <0>         0.1326
     54 H22         1.1219    4.2144    7.9776 H         1 <0>         0.4274
     55 H23         2.9723    2.8284    8.6366 H         1 <0>         0.1383
     56 H24         1.8417    1.9403    9.6855 H         1 <0>         0.1323
     57 H25         2.1306    0.7682    7.5256 H         1 <0>         0.1221
     58 H26         1.6139    2.2329    6.6548 H         1 <0>         0.1043
     59 H27        -0.0230   -0.4278   10.8750 H         1 <0>         0.1376
     60 H28         0.9736   -0.3706   13.1225 H         1 <0>         0.1398
     61 H29         2.6969   -2.0096   13.7516 H         1 <0>         0.1421
     62 H30         2.4397   -3.7973    9.8880 H         1 <0>         0.1480
     63 H31         1.4011    4.3035    9.5974 H         1 <0>         0.4335
@<TRIPOS>BOND
     1    1    2 1
     2    1   34 1
     3    1   35 1
     4    1   36 1
     5    2    3 1
     6    2   37 1
     7    2   38 1
     8    3    4 1
     9    4    9 ar
    10    4    5 ar
    11    5    6 ar
    12    5   39 1
    13    6    7 ar
    14    6   40 1
    15    7    8 ar
    16    7   41 1
    17    8    9 ar
    18    8   42 1
    19    9   10 1
    20   10   11 1
    21   10   43 1
    22   10   44 1
    23   11   12 am
    24   11   45 1
    25   12   13 2
    26   12   14 1
    27   14   15 1
    28   14   19 1
    29   14   16 1
    30   16   17 1
    31   16   46 1
    32   16   47 1
    33   17   18 1
    34   17   25 am
    35   18   19 1
    36   18   48 1
    37   18   49 1
    38   19   24 1
    39   19   20 1
    40   20   21 1
    41   20   50 1
    42   20   51 1
    43   21   22 1
    44   21   52 1
    45   21   53 1
    46   22   23 1
    47   22   54 1
    48   22   63 1
    49   23   24 1
    50   23   55 1
    51   23   56 1
    52   24   57 1
    53   24   58 1
    54   25   26 2
    55   25   27 1
    56   27   32 ar
    57   27   28 ar
    58   28   29 ar
    59   28   59 1
    60   29   30 ar
    61   29   60 1
    62   30   31 ar
    63   30   61 1
    64   31   32 ar
    65   31   33 1
    66   32   62 1
@<TRIPOS>MOLECULE
ZINC39676986
   69    72     0     0     0
SMALL
USER_CHARGES

@<TRIPOS>ATOM
      1 C1         -0.3782   -2.8259   -2.5157 C.3       1 <0>        -0.1197
      2 C2          0.9281   -3.3156   -1.9456 C.ar      1 <0>        -0.0832
      3 C3          2.1114   -3.0670   -2.6161 C.ar      1 <0>        -0.1126
      4 C4          3.3094   -3.5161   -2.0933 C.ar      1 <0>        -0.1126
      5 C5          3.3245   -4.2135   -0.8995 C.ar      1 <0>        -0.0898
      6 C6          2.1417   -4.4611   -0.2288 C.ar      1 <0>        -0.0883
      7 C7          0.9438   -4.0082   -0.7496 C.ar      1 <0>        -0.1102
      8 C8          2.1582   -5.2216    1.0721 C.3       1 <0>        -0.0893
      9 C9          2.4385   -4.2550    2.2245 C.3       1 <0>         0.1212
     10 N1          2.4546   -4.9943    3.4891 N.am      1 <0>        -0.7276
     11 C10         2.6842   -4.3440    4.6470 C.2       1 <0>         0.5185
     12 O1          2.8776   -3.1467    4.6420 O.2       1 <0>        -0.5183
     13 C11         2.7007   -5.1045    5.9480 C.3       1 <0>        -0.1141
     14 H1          2.0451   -5.9731    5.8872 H         1 <0>         0.1137
     15 C12         2.2703   -4.1860    7.1135 C.3       1 <0>         0.1062
     16 N2          3.1272   -4.5974    8.2504 N.am      1 <0>        -0.6236
     17 C13         4.4535   -4.8524    7.6390 C.3       1 <0>         0.1112
     18 C14         4.1343   -5.5390    6.2961 C.3       1 <0>        -0.0725
     19 C15         5.1059   -5.0669    5.2187 C.3       1 <0>        -0.1471
     20 C16         6.5154   -5.5608    5.5569 C.3       1 <0>        -0.0082
     21 N3          6.5163   -7.0265    5.6367 N.4       1 <0>        -0.5045
     22 C17         5.6506   -7.4685    6.7367 C.3       1 <0>        -0.0115
     23 C18         4.2045   -7.0554    6.4484 C.3       1 <0>        -0.1341
     24 C19         2.7793   -4.7139    9.5473 C.2       1 <0>         0.5445
     25 O2          3.6018   -5.0645   10.3667 O.2       1 <0>        -0.5015
     26 C20         1.3681   -4.4086    9.9792 C.3       1 <0>         0.0445
     27 O3          1.2489   -4.6042   11.3897 O.3       1 <0>        -0.2873
     28 C21         0.0305   -4.3698   11.9442 C.ar      1 <0>         0.1368
     29 C22        -1.0301   -3.9655   11.1460 C.ar      1 <0>        -0.2071
     30 C23        -2.2679   -3.7282   11.7112 C.ar      1 <0>        -0.0643
     31 C24        -2.4513   -3.8931   13.0717 C.ar      1 <0>        -0.1418
     32 C25        -1.3956   -4.2957   13.8704 C.ar      1 <0>         0.0053
     33 C26        -0.1562   -4.5399   13.3079 C.ar      1 <0>        -0.1387
     34 Cl1        -1.6290   -4.5013   15.5783 Cl        1 <0>        -0.0506
     35 C27         4.6307   -4.7040   -0.3300 C.3       1 <0>        -0.1148
     36 H2         -0.5844   -1.8230   -2.1421 H         1 <0>         0.0732
     37 H3         -0.3137   -2.8023   -3.6035 H         1 <0>         0.0695
     38 H4         -1.1812   -3.4984   -2.2138 H         1 <0>         0.0676
     39 H5          2.0995   -2.5223   -3.5486 H         1 <0>         0.1250
     40 H6          4.2336   -3.3226   -2.6174 H         1 <0>         0.1239
     41 H7          0.0199   -4.1984   -0.2236 H         1 <0>         0.1221
     42 H8          1.1907   -5.6995    1.2259 H         1 <0>         0.0797
     43 H9          2.9380   -5.9825    1.0383 H         1 <0>         0.0800
     44 H10         3.4061   -3.7771    2.0707 H         1 <0>         0.0743
     45 H11         1.6588   -3.4941    2.2583 H         1 <0>         0.0756
     46 H12         2.2999   -5.9519    3.4931 H         1 <0>         0.4006
     47 H13         2.4504   -3.1412    6.8605 H         1 <0>         0.1052
     48 H14         1.2188   -4.3440    7.3535 H         1 <0>         0.0936
     49 H15         4.9819   -3.9138    7.4713 H         1 <0>         0.0881
     50 H16         5.0437   -5.5143    8.2727 H         1 <0>         0.0914
     51 H17         4.8014   -5.4692    4.2526 H         1 <0>         0.0977
     52 H18         5.1023   -3.9777    5.1774 H         1 <0>         0.1268
     53 H19         7.2090   -5.2391    4.7800 H         1 <0>         0.1399
     54 H20         6.8257   -5.1447    6.5154 H         1 <0>         0.1339
     55 H21         6.1757   -7.4096    4.7676 H         1 <0>         0.4275
     56 H22         5.7067   -8.5531    6.8296 H         1 <0>         0.1406
     57 H23         5.9814   -7.0070    7.6671 H         1 <0>         0.1345
     58 H24         3.5653   -7.3681    7.2740 H         1 <0>         0.1183
     59 H25         3.8675   -7.5296    5.5267 H         1 <0>         0.0972
     60 H26         1.1291   -3.3737    9.7344 H         1 <0>         0.0992
     61 H27         0.6775   -5.0735    9.4605 H         1 <0>         0.0967
     62 H28        -0.8877   -3.8360   10.0833 H         1 <0>         0.1318
     63 H29        -3.0932   -3.4131   11.0899 H         1 <0>         0.1391
     64 H30        -3.4199   -3.7070   13.5117 H         1 <0>         0.1397
     65 H31         0.6667   -4.8589   13.9305 H         1 <0>         0.1448
     66 H32         5.0529   -3.9391    0.3219 H         1 <0>         0.0677
     67 H33         4.4579   -5.6149    0.2432 H         1 <0>         0.0636
     68 H34         5.3261   -4.9127   -1.1430 H         1 <0>         0.0676
     69 H35         7.4572   -7.3526    5.7992 H         1 <0>         0.4349
@<TRIPOS>BOND
     1    1    2 1
     2    1   36 1
     3    1   37 1
     4    1   38 1
     5    2    7 ar
     6    2    3 ar
     7    3    4 ar
     8    3   39 1
     9    4    5 ar
    10    4   40 1
    11    5    6 ar
    12    5   35 1
    13    6    7 ar
    14    6    8 1
    15    7   41 1
    16    8    9 1
    17    8   42 1
    18    8   43 1
    19    9   10 1
    20    9   44 1
    21    9   45 1
    22   10   11 am
    23   10   46 1
    24   11   12 2
    25   11   13 1
    26   13   14 1
    27   13   18 1
    28   13   15 1
    29   15   16 1
    30   15   47 1
    31   15   48 1
    32   16   17 1
    33   16   24 am
    34   17   18 1
    35   17   49 1
    36   17   50 1
    37   18   23 1
    38   18   19 1
    39   19   20 1
    40   19   51 1
    41   19   52 1
    42   20   21 1
    43   20   53 1
    44   20   54 1
    45   21   22 1
    46   21   55 1
    47   21   69 1
    48   22   23 1
    49   22   56 1
    50   22   57 1
    51   23   58 1
    52   23   59 1
    53   24   25 2
    54   24   26 1
    55   26   27 1
    56   26   60 1
    57   26   61 1
    58   27   28 1
    59   28   33 ar
    60   28   29 ar
    61   29   30 ar
    62   29   62 1
    63   30   31 ar
    64   30   63 1
    65   31   32 ar
    66   31   64 1
    67   32   33 ar
    68   32   34 1
    69   33   65 1
    70   35   66 1
    71   35   67 1
    72   35   68 1
@<TRIPOS>MOLECULE
ZINC39688122
   60    63     0     0     0
SMALL
USER_CHARGES

@<TRIPOS>ATOM
      1 C1          0.0664    1.5876    0.3668 C.ar      1 <0>        -0.1199
      2 C2          0.9396    2.2586   -0.4718 C.ar      1 <0>        -0.0748
      3 C3          1.8942    1.5605   -1.1884 C.ar      1 <0>        -0.1153
      4 C4          1.9817    0.1867   -1.0717 C.ar      1 <0>         0.0119
      5 C5          1.1031   -0.4960   -0.2269 C.ar      1 <0>        -0.1353
      6 C6          0.1425    0.2165    0.4934 C.ar      1 <0>        -0.0793
      7 C7          1.1898   -1.9654   -0.0968 C.2       1 <0>         0.5875
      8 O1          2.2729   -2.5160   -0.1338 O.2       1 <0>        -0.5043
      9 N1          0.0679   -2.6951    0.0629 N.am      1 <0>        -0.6197
     10 C8         -1.3360   -2.2220    0.0274 C.3       1 <0>         0.1064
     11 C9         -2.1041   -3.3350   -0.7202 C.3       1 <0>        -0.1138
     12 H1         -2.1884   -3.0921   -1.7795 H         1 <0>         0.1119
     13 C10        -1.2499   -4.5991   -0.5271 C.3       1 <0>        -0.0710
     14 C11        -0.0405   -4.1533    0.3074 C.3       1 <0>         0.1093
     15 C12        -0.7830   -5.1329   -1.8779 C.3       1 <0>        -0.1347
     16 C13         0.0162   -6.4214   -1.6637 C.3       1 <0>        -0.0111
     17 N2         -0.8261   -7.4149   -0.9868 N.4       1 <0>        -0.5045
     18 C14        -1.1945   -6.9323    0.3496 C.3       1 <0>        -0.0074
     19 C15        -2.0447   -5.6653    0.2206 C.3       1 <0>        -0.1471
     20 C16        -3.4715   -3.5255   -0.1161 C.2       1 <0>         0.5215
     21 O2         -3.6468   -3.3171    1.0657 O.2       1 <0>        -0.5205
     22 N3         -4.4997   -3.9275   -0.8893 N.am      1 <0>        -0.7245
     23 C17        -5.8290   -4.1128   -0.3020 C.3       1 <0>         0.1216
     24 C18        -6.8068   -4.5688   -1.3869 C.3       1 <0>         0.0415
     25 O3         -6.4210   -5.8594   -1.8638 O.3       1 <0>        -0.3167
     26 C19        -7.1910   -6.4130   -2.8379 C.ar      1 <0>         0.1129
     27 C20        -8.2914   -5.7251   -3.3278 C.ar      1 <0>        -0.1770
     28 C21        -9.0731   -6.2888   -4.3176 C.ar      1 <0>        -0.1098
     29 C22        -8.7589   -7.5400   -4.8202 C.ar      1 <0>         0.0699
     30 C23        -7.6611   -8.2280   -4.3318 C.ar      1 <0>        -0.1138
     31 C24        -6.8738   -7.6637   -3.3467 C.ar      1 <0>        -0.1230
     32 F1         -9.5244   -8.0903   -5.7878 F         1 <0>        -0.1348
     33 Cl1         3.1798   -0.6888   -1.9727 Cl        1 <0>        -0.0391
     34 H2         -0.6737    2.1399    0.9268 H         1 <0>         0.1398
     35 H3          0.8749    3.3324   -0.5671 H         1 <0>         0.1424
     36 H4          2.5724    2.0903   -1.8409 H         1 <0>         0.1447
     37 H5         -0.5398   -0.3051    1.1482 H         1 <0>         0.1376
     38 H6         -1.7239   -2.1066    1.0395 H         1 <0>         0.1016
     39 H7         -1.4061   -1.2803   -0.5171 H         1 <0>         0.0966
     40 H8          0.8619   -4.6636   -0.0293 H         1 <0>         0.0914
     41 H9         -0.2176   -4.3496    1.3649 H         1 <0>         0.0862
     42 H10        -1.6493   -5.3422   -2.5056 H         1 <0>         0.0967
     43 H11        -0.1515   -4.3896   -2.3644 H         1 <0>         0.1183
     44 H12         0.3372   -6.8143   -2.6284 H         1 <0>         0.1399
     45 H13         0.8911   -6.2081   -1.0494 H         1 <0>         0.1345
     46 H14        -1.6626   -7.5702   -1.5292 H         1 <0>         0.4279
     47 H15        -1.7659   -7.7017    0.8688 H         1 <0>         0.1394
     48 H16        -0.2909   -6.7071    0.9161 H         1 <0>         0.1331
     49 H17        -2.3025   -5.2974    1.2137 H         1 <0>         0.1266
     50 H18        -2.9564   -5.8935   -0.3316 H         1 <0>         0.0988
     51 H19        -4.3595   -4.0942   -1.8345 H         1 <0>         0.4046
     52 H20        -5.7778   -4.8684    0.4819 H         1 <0>         0.0851
     53 H21        -6.1726   -3.1701    0.1239 H         1 <0>         0.0979
     54 H22        -7.8128   -4.6211   -0.9706 H         1 <0>         0.0876
     55 H23        -6.7916   -3.8570   -2.2122 H         1 <0>         0.0752
     56 H24        -8.5371   -4.7494   -2.9353 H         1 <0>         0.1388
     57 H25        -9.9299   -5.7534   -4.6992 H         1 <0>         0.1426
     58 H26        -7.4173   -9.2041   -4.7245 H         1 <0>         0.1448
     59 H27        -6.0147   -8.1985   -2.9693 H         1 <0>         0.1366
     60 H28        -0.3180   -8.2825   -0.9014 H         1 <0>         0.4342
@<TRIPOS>BOND
     1    1    6 ar
     2    1    2 ar
     3    1   34 1
     4    2    3 ar
     5    2   35 1
     6    3    4 ar
     7    3   36 1
     8    4    5 ar
     9    4   33 1
    10    5    6 ar
    11    5    7 1
    12    6   37 1
    13    7    8 2
    14    7    9 am
    15    9   14 1
    16    9   10 1
    17   10   11 1
    18   10   38 1
    19   10   39 1
    20   11   12 1
    21   11   13 1
    22   11   20 1
    23   13   19 1
    24   13   14 1
    25   13   15 1
    26   14   40 1
    27   14   41 1
    28   15   16 1
    29   15   42 1
    30   15   43 1
    31   16   17 1
    32   16   44 1
    33   16   45 1
    34   17   18 1
    35   17   46 1
    36   17   60 1
    37   18   19 1
    38   18   47 1
    39   18   48 1
    40   19   49 1
    41   19   50 1
    42   20   21 2
    43   20   22 am
    44   22   23 1
    45   22   51 1
    46   23   24 1
    47   23   52 1
    48   23   53 1
    49   24   25 1
    50   24   54 1
    51   24   55 1
    52   25   26 1
    53   26   31 ar
    54   26   27 ar
    55   27   28 ar
    56   27   56 1
    57   28   29 ar
    58   28   57 1
    59   29   30 ar
    60   29   32 1
    61   30   31 ar
    62   30   58 1
    63   31   59 1
@<TRIPOS>MOLECULE
ZINC63899672
   61    65     0     0     0
SMALL
USER_CHARGES

@<TRIPOS>ATOM
      1 C1         -0.0163    1.3482    0.0095 C.ar      1 <0>        -0.1502
      2 C2          1.1658    2.1014    0.0022 C.ar      1 <0>         0.0551
      3 C3          2.3912    1.5352   -0.0125 C.ar      1 <0>        -0.2099
      4 C4          2.5288    0.1198   -0.0218 C.ar      1 <0>         0.3279
      5 N1          3.5868   -0.6543   -0.0369 N.pl3     1 <0>        -0.5850
      6 C5          3.1432   -2.0528   -0.0408 C.3       1 <0>         0.0604
      7 C6          1.6315   -2.0084   -0.0255 C.2       1 <0>         0.0706
      8 C7          1.2951   -0.6984   -0.0144 C.ar      1 <0>        -0.1673
      9 C8          0.0021   -0.0041    0.0020 C.ar      1 <0>        -0.0127
     10 C9          0.6905   -3.1856   -0.0239 C.3       1 <0>        -0.1057
     11 C10         0.4565   -3.6534   -1.4617 C.3       1 <0>         0.1256
     12 N2         -0.4583   -4.7977   -1.4602 N.am      1 <0>        -0.7369
     13 C11        -0.8107   -5.3803   -2.6233 C.2       1 <0>         0.5206
     14 O1         -0.3706   -4.9572   -3.6712 O.2       1 <0>        -0.5321
     15 C12        -1.7517   -6.5574   -2.6217 C.3       1 <0>        -0.1260
     16 C13        -1.9857   -7.0252   -4.0595 C.3       1 <0>        -0.1208
     17 C14        -2.9267   -8.2023   -4.0578 C.2       1 <0>         0.5281
     18 O2         -3.3669   -8.6254   -3.0099 O.2       1 <0>        -0.5357
     19 N3         -3.2792   -8.7849   -5.2210 N.am      1 <0>        -0.6121
     20 C15        -2.8160   -8.3788   -6.5603 C.3       1 <0>         0.0979
     21 C16        -2.9634   -9.6500   -7.4332 C.3       1 <0>        -0.1330
     22 C17        -4.2707  -10.2659   -6.8684 C.3       1 <0>        -0.1256
     23 C18        -4.1843   -9.9346   -5.3637 C.3       1 <0>         0.1352
     24 H1         -3.7870  -10.7894   -4.8163 H         1 <0>         0.0975
     25 C19        -5.5729   -9.5728   -4.8328 C.3       1 <0>         0.1797
     26 H2         -5.5173   -9.2243   -3.8015 H         1 <0>         0.1180
     27 N4         -6.2245   -8.5760   -5.6932 N.pl3     1 <0>        -0.7333
     28 C20        -7.4126   -8.9454   -6.3218 C.ar      1 <0>         0.1803
     29 C21        -8.1743   -8.1290   -7.1770 C.ar      1 <0>        -0.1650
     30 C22        -9.3374   -8.5877   -7.7502 C.ar      1 <0>        -0.0734
     31 C23        -9.7977   -9.8683   -7.5054 C.ar      1 <0>        -0.1489
     32 C24        -9.0680  -10.6947   -6.6671 C.ar      1 <0>        -0.0405
     33 C25        -7.9043  -10.2344   -6.0937 C.ar      1 <0>        -0.1401
     34 S1         -6.7309  -10.9909   -4.9900 S.3       1 <0>        -0.1282
     35 H3         -0.9665    1.8612    0.0259 H         1 <0>         0.1583
     36 H4          1.0933    3.1789    0.0083 H         1 <0>         0.1614
     37 H5          3.2717    2.1606   -0.0175 H         1 <0>         0.1610
     38 H6          3.4952   -2.5561   -0.9413 H         1 <0>         0.1747
     39 H7          3.5129   -2.5667    0.8465 H         1 <0>         0.1751
     40 H8         -0.9210   -0.5647    0.0081 H         1 <0>         0.1606
     41 H9          1.1268   -3.9987    0.5563 H         1 <0>         0.1197
     42 H10        -0.2596   -2.8905    0.4214 H         1 <0>         0.1166
     43 H11         0.0203   -2.8403   -2.0419 H         1 <0>         0.0787
     44 H12         1.4067   -3.9484   -1.9070 H         1 <0>         0.0779
     45 H13        -0.8103   -5.1361   -0.6220 H         1 <0>         0.4086
     46 H14        -1.3155   -7.3705   -2.0415 H         1 <0>         0.1074
     47 H15        -2.7019   -6.2623   -2.1764 H         1 <0>         0.1065
     48 H16        -2.4220   -6.2121   -4.6397 H         1 <0>         0.1019
     49 H17        -1.0356   -7.3202   -4.5048 H         1 <0>         0.1032
     50 H18        -3.4414   -7.5759   -6.9507 H         1 <0>         0.0717
     51 H19        -1.7732   -8.0639   -6.5218 H         1 <0>         0.0825
     52 H20        -3.0768   -9.3902   -8.4857 H         1 <0>         0.0890
     53 H21        -2.1192  -10.3240   -7.2876 H         1 <0>         0.0802
     54 H22        -5.1446   -9.7971   -7.3206 H         1 <0>         0.0852
     55 H23        -4.2870  -11.3447   -7.0231 H         1 <0>         0.0913
     56 H24        -5.8423   -7.6933   -5.8188 H         1 <0>         0.4074
     57 H25        -7.8400   -7.1238   -7.3871 H         1 <0>         0.1192
     58 H26        -9.9003   -7.9368   -8.4027 H         1 <0>         0.1277
     59 H27       -10.7123  -10.2186   -7.9606 H         1 <0>         0.1333
     60 H28        -9.4111  -11.6984   -6.4640 H         1 <0>         0.1300
     61 H29         4.5087   -0.3528   -0.0446 H         1 <0>         0.4563
@<TRIPOS>BOND
     1    1    9 ar
     2    1    2 ar
     3    1   35 1
     4    2    3 ar
     5    2   36 1
     6    3    4 ar
     7    3   37 1
     8    4    8 ar
     9    4    5 2
    10    5    6 1
    11    5   61 1
    12    6    7 1
    13    6   38 1
    14    6   39 1
    15    7    8 2
    16    7   10 1
    17    8    9 ar
    18    9   40 1
    19   10   11 1
    20   10   41 1
    21   10   42 1
    22   11   12 1
    23   11   43 1
    24   11   44 1
    25   12   13 am
    26   12   45 1
    27   13   14 2
    28   13   15 1
    29   15   16 1
    30   15   46 1
    31   15   47 1
    32   16   17 1
    33   16   48 1
    34   16   49 1
    35   17   18 2
    36   17   19 am
    37   19   23 1
    38   19   20 1
    39   20   21 1
    40   20   50 1
    41   20   51 1
    42   21   22 1
    43   21   52 1
    44   21   53 1
    45   22   23 1
    46   22   54 1
    47   22   55 1
    48   23   24 1
    49   23   25 1
    50   25   26 1
    51   25   34 1
    52   25   27 1
    53   27   28 1
    54   27   56 1
    55   28   33 ar
    56   28   29 ar
    57   29   30 ar
    58   29   57 1
    59   30   31 ar
    60   30   58 1
    61   31   32 ar
    62   31   59 1
    63   32   33 ar
    64   32   60 1
    65   33   34 1
@<TRIPOS>MOLECULE
ZINC39609273
   69    72     0     0     0
SMALL
USER_CHARGES

@<TRIPOS>ATOM
      1 C1          2.7833    1.5246    2.6022 C.3       1 <0>        -0.1226
      2 C2          2.8027    0.0178    2.5929 C.ar      1 <0>        -0.0795
      3 C3          1.6174   -0.6893    2.6742 C.ar      1 <0>        -0.1125
      4 C4          1.6351   -2.0713    2.6657 C.ar      1 <0>        -0.1137
      5 C5          2.8382   -2.7466    2.5754 C.ar      1 <0>        -0.0957
      6 C6          4.0230   -2.0397    2.4932 C.ar      1 <0>        -0.1113
      7 C7          4.0049   -0.6573    2.4974 C.ar      1 <0>        -0.0834
      8 C8          5.2964    0.1135    2.4024 C.3       1 <0>        -0.1196
      9 C9          2.8576   -4.2535    2.5671 C.3       1 <0>        -0.0853
     10 C10         2.7599   -4.7568    1.1256 C.3       1 <0>         0.1216
     11 N1          2.7788   -6.2217    1.1175 N.am      1 <0>        -0.7291
     12 C11         2.7031   -6.8902   -0.0503 C.2       1 <0>         0.5147
     13 O1          2.6193   -6.2791   -1.0946 O.2       1 <0>        -0.5180
     14 C12         2.7225   -8.3970   -0.0586 C.3       1 <0>        -0.1154
     15 H1          2.2893   -8.7865    0.8627 H         1 <0>         0.1201
     16 C13         1.9543   -8.9382   -1.2852 C.3       1 <0>         0.1117
     17 N2          2.9995   -9.1675   -2.3103 N.am      1 <0>        -0.6186
     18 C14         4.1477   -9.7164   -1.5498 C.3       1 <0>         0.1104
     19 C15         4.1606   -8.9130   -0.2341 C.3       1 <0>        -0.0733
     20 C16         4.5437   -9.8175    0.9334 C.3       1 <0>        -0.1335
     21 C17         5.9968  -10.2708    0.7666 C.3       1 <0>        -0.0105
     22 N3          6.8759   -9.0962    0.7225 N.4       1 <0>        -0.5045
     23 C18         6.5618   -8.2798   -0.4563 C.3       1 <0>        -0.0093
     24 C19         5.1327   -7.7421   -0.3412 C.3       1 <0>        -0.1469
     25 C20         2.9234   -8.9308   -3.6349 C.2       1 <0>         0.5507
     26 O2          3.8727   -9.1734   -4.3498 O.2       1 <0>        -0.5055
     27 C21         1.6589   -8.3647   -4.2278 C.3       1 <0>         0.0454
     28 O3          1.8241   -8.2047   -5.6382 O.3       1 <0>        -0.2878
     29 C22         0.7682   -7.7011   -6.3298 C.ar      1 <0>         0.1388
     30 C23        -0.4009   -7.3624   -5.6636 C.ar      1 <0>        -0.2061
     31 C24        -1.4730   -6.8502   -6.3682 C.ar      1 <0>        -0.0645
     32 C25        -1.3824   -6.6747   -7.7367 C.ar      1 <0>        -0.1429
     33 C26        -0.2181   -7.0120   -8.4039 C.ar      1 <0>         0.0052
     34 C27         0.8596   -7.5197   -7.7018 C.ar      1 <0>        -0.1394
     35 Cl1        -0.1077   -6.7909  -10.1222 Cl        1 <0>        -0.0519
     36 H2          2.7002    1.8933    1.5797 H         1 <0>         0.0738
     37 H3          1.9305    1.8735    3.1846 H         1 <0>         0.0694
     38 H4          3.7051    1.8971    3.0489 H         1 <0>         0.0708
     39 H5          0.6776   -0.1617    2.7447 H         1 <0>         0.1253
     40 H6          0.7093   -2.6236    2.7299 H         1 <0>         0.1217
     41 H7          4.9628   -2.5673    2.4229 H         1 <0>         0.1178
     42 H8          5.6862    0.2941    3.4042 H         1 <0>         0.0727
     43 H9          6.0221   -0.4628    1.8285 H         1 <0>         0.0649
     44 H10         5.1150    1.0667    1.9058 H         1 <0>         0.0718
     45 H11         3.7870   -4.6073    3.0133 H         1 <0>         0.0753
     46 H12         2.0119   -4.6309    3.1419 H         1 <0>         0.0805
     47 H13         1.8305   -4.4030    0.6794 H         1 <0>         0.0751
     48 H14         3.6056   -4.3794    0.5508 H         1 <0>         0.0719
     49 H15         2.8458   -6.7105    1.9527 H         1 <0>         0.4001
     50 H16         1.4534   -9.8741   -1.0373 H         1 <0>         0.0951
     51 H17         1.2322   -8.2013   -1.6368 H         1 <0>         0.0971
     52 H18         3.9969  -10.7765   -1.3456 H         1 <0>         0.0880
     53 H19         5.0765   -9.5622   -2.0990 H         1 <0>         0.0899
     54 H20         4.4391   -9.2680    1.8689 H         1 <0>         0.0982
     55 H21         3.8898  -10.6894    0.9479 H         1 <0>         0.1228
     56 H22         6.2785  -10.9038    1.6081 H         1 <0>         0.1407
     57 H23         6.0971  -10.8345   -0.1610 H         1 <0>         0.1333
     58 H24         6.7412   -8.5454    1.5571 H         1 <0>         0.4274
     59 H25         7.2601   -7.4450   -0.5163 H         1 <0>         0.1388
     60 H26         6.6486   -8.8908   -1.3548 H         1 <0>         0.1348
     61 H27         4.8941   -7.1508   -1.2252 H         1 <0>         0.1230
     62 H28         5.0494   -7.1175    0.5483 H         1 <0>         0.0959
     63 H29         0.8302   -9.0456   -4.0339 H         1 <0>         0.0955
     64 H30         1.4470   -7.3962   -3.7747 H         1 <0>         0.1017
     65 H31        -0.4728   -7.4994   -4.5948 H         1 <0>         0.1316
     66 H32        -2.3830   -6.5869   -5.8496 H         1 <0>         0.1385
     67 H33        -2.2217   -6.2741   -8.2857 H         1 <0>         0.1392
     68 H34         1.7701   -7.7784   -8.2218 H         1 <0>         0.1444
     69 H35         7.8372   -9.3988    0.6739 H         1 <0>         0.4348
@<TRIPOS>BOND
     1    1    2 1
     2    1   36 1
     3    1   37 1
     4    1   38 1
     5    2    7 ar
     6    2    3 ar
     7    3    4 ar
     8    3   39 1
     9    4    5 ar
    10    4   40 1
    11    5    6 ar
    12    5    9 1
    13    6    7 ar
    14    6   41 1
    15    7    8 1
    16    8   42 1
    17    8   43 1
    18    8   44 1
    19    9   10 1
    20    9   45 1
    21    9   46 1
    22   10   11 1
    23   10   47 1
    24   10   48 1
    25   11   12 am
    26   11   49 1
    27   12   13 2
    28   12   14 1
    29   14   15 1
    30   14   19 1
    31   14   16 1
    32   16   17 1
    33   16   50 1
    34   16   51 1
    35   17   18 1
    36   17   25 am
    37   18   19 1
    38   18   52 1
    39   18   53 1
    40   19   24 1
    41   19   20 1
    42   20   21 1
    43   20   54 1
    44   20   55 1
    45   21   22 1
    46   21   56 1
    47   21   57 1
    48   22   23 1
    49   22   58 1
    50   22   69 1
    51   23   24 1
    52   23   59 1
    53   23   60 1
    54   24   61 1
    55   24   62 1
    56   25   26 2
    57   25   27 1
    58   27   28 1
    59   27   63 1
    60   27   64 1
    61   28   29 1
    62   29   34 ar
    63   29   30 ar
    64   30   31 ar
    65   30   65 1
    66   31   32 ar
    67   31   66 1
    68   32   33 ar
    69   32   67 1
    70   33   34 ar
    71   33   35 1
    72   34   68 1
@<TRIPOS>MOLECULE
ZINC39666889
   68    71     0     0     0
SMALL
USER_CHARGES

@<TRIPOS>ATOM
      1 C1          1.1158   -2.2632   -4.0602 C.3       1 <0>        -0.1554
      2 C2          0.7319   -2.5280   -2.6030 C.3       1 <0>        -0.1217
      3 C3         -0.5295   -3.3926   -2.5570 C.3       1 <0>        -0.1016
      4 C4         -0.2263   -4.7691   -3.1522 C.3       1 <0>        -0.1191
      5 C5          0.8880   -5.4391   -2.3458 C.3       1 <0>        -0.1610
      6 C6         -0.9847   -3.5537   -1.1052 C.3       1 <0>         0.1163
      7 N1         -2.2529   -4.2863   -1.0695 N.am      1 <0>        -0.7245
      8 C7         -2.7945   -4.6387    0.1133 C.2       1 <0>         0.5186
      9 O1         -2.2320   -4.3493    1.1481 O.2       1 <0>        -0.5198
     10 C8         -4.0990   -5.3923    0.1500 C.3       1 <0>        -0.1142
     11 H1         -4.7065   -5.1406   -0.7192 H         1 <0>         0.1116
     12 C9         -4.8668   -5.0755    1.4530 C.3       1 <0>         0.1082
     13 N2         -5.4981   -6.3599    1.8373 N.am      1 <0>        -0.6182
     14 C10        -4.4712   -7.3830    1.5263 C.3       1 <0>         0.1107
     15 C11        -3.8408   -6.9075    0.2022 C.3       1 <0>        -0.0722
     16 C12        -4.5124   -7.5990   -0.9803 C.3       1 <0>        -0.1344
     17 C13        -4.1942   -9.0963   -0.9378 C.3       1 <0>        -0.0112
     18 N3         -2.7403   -9.2910   -0.9925 N.4       1 <0>        -0.5045
     19 C14        -2.1110   -8.7027    0.1960 C.3       1 <0>        -0.0080
     20 C15        -2.3414   -7.1889    0.2017 C.3       1 <0>        -0.1475
     21 C16        -6.7280   -6.5541    2.3532 C.2       1 <0>         0.6346
     22 O2         -7.1054   -7.6803    2.6196 O.2       1 <0>        -0.5107
     23 C17        -7.6106   -5.4100    2.5931 C.2       1 <0>        -0.0944
     24 C18        -8.8833   -5.4661    3.1182 C.2       1 <0>        -0.0932
     25 C19        -9.3556   -4.1511    3.1728 C.2       1 <0>        -0.2009
     26 C20        -8.3650   -3.3479    2.6845 C.2       1 <0>         0.0772
     27 O3         -7.3167   -4.1162    2.3439 O.3       1 <0>        -0.1573
     28 C21        -8.4325   -1.8784    2.5573 C.ar      1 <0>        -0.0475
     29 C22        -9.5805   -1.1920    2.9594 C.ar      1 <0>        -0.0574
     30 C23        -9.6377    0.1803    2.8387 C.ar      1 <0>        -0.1482
     31 C24        -8.5587    0.8787    2.3196 C.ar      1 <0>         0.1198
     32 C25        -7.4170    0.2027    1.9185 C.ar      1 <0>        -0.1519
     33 C26        -7.3463   -1.1689    2.0398 C.ar      1 <0>        -0.0665
     34 F1         -8.6203    2.2233    2.2036 F         1 <0>        -0.1300
     35 H2          2.0145   -1.6472   -4.0930 H         1 <0>         0.0594
     36 H3          1.3065   -3.2110   -4.5636 H         1 <0>         0.0566
     37 H4          0.3001   -1.7428   -4.5621 H         1 <0>         0.0555
     38 H5          1.5476   -3.0484   -2.1011 H         1 <0>         0.0704
     39 H6          0.5413   -1.5802   -2.0995 H         1 <0>         0.0674
     40 H7         -1.3199   -2.9132   -3.1345 H         1 <0>         0.0791
     41 H8         -1.1236   -5.3868   -3.1148 H         1 <0>         0.0524
     42 H9          0.0931   -4.6547   -4.1880 H         1 <0>         0.0723
     43 H10         1.1103   -6.4160   -2.7753 H         1 <0>         0.0520
     44 H11         1.7826   -4.8170   -2.3757 H         1 <0>         0.0655
     45 H12         0.5651   -5.5617   -1.3120 H         1 <0>         0.0536
     46 H13        -0.2296   -4.1071   -0.5469 H         1 <0>         0.0786
     47 H14        -1.1206   -2.5701   -0.6557 H         1 <0>         0.0713
     48 H15        -2.7028   -4.5178   -1.8971 H         1 <0>         0.3997
     49 H16        -4.1774   -4.7436    2.2292 H         1 <0>         0.1023
     50 H17        -5.6284   -4.3174    1.2705 H         1 <0>         0.1022
     51 H18        -3.7197   -7.4197    2.3150 H         1 <0>         0.0886
     52 H19        -4.9354   -8.3606    1.3961 H         1 <0>         0.0922
     53 H20        -5.5912   -7.4544   -0.9217 H         1 <0>         0.1184
     54 H21        -4.1378   -7.1736   -1.9113 H         1 <0>         0.0967
     55 H22        -4.5834   -9.5241   -0.0139 H         1 <0>         0.1348
     56 H23        -4.6591   -9.5907   -1.7908 H         1 <0>         0.1404
     57 H24        -2.5355  -10.2784   -1.0259 H         1 <0>         0.4345
     58 H25        -2.5494   -9.1401    1.0930 H         1 <0>         0.1340
     59 H26        -1.0404   -8.9070    0.1787 H         1 <0>         0.1396
     60 H27        -1.8889   -6.7486   -0.6868 H         1 <0>         0.0983
     61 H28        -1.8895   -6.7553    1.0938 H         1 <0>         0.1267
     62 H29        -9.4139   -6.3545    3.4275 H         1 <0>         0.1674
     63 H30       -10.3220   -3.8309    3.5334 H         1 <0>         0.1650
     64 H31       -10.4219   -1.7351    3.3636 H         1 <0>         0.1436
     65 H32       -10.5251    0.7121    3.1490 H         1 <0>         0.1482
     66 H33        -6.5796    0.7518    1.5140 H         1 <0>         0.1439
     67 H34        -6.4544   -1.6941    1.7315 H         1 <0>         0.1361
     68 H35        -2.3736   -8.8460   -1.8206 H         1 <0>         0.4273
@<TRIPOS>BOND
     1    1    2 1
     2    1   35 1
     3    1   36 1
     4    1   37 1
     5    2    3 1
     6    2   38 1
     7    2   39 1
     8    3    4 1
     9    3    6 1
    10    3   40 1
    11    4    5 1
    12    4   41 1
    13    4   42 1
    14    5   43 1
    15    5   44 1
    16    5   45 1
    17    6    7 1
    18    6   46 1
    19    6   47 1
    20    7    8 am
    21    7   48 1
    22    8    9 2
    23    8   10 1
    24   10   11 1
    25   10   15 1
    26   10   12 1
    27   12   13 1
    28   12   49 1
    29   12   50 1
    30   13   14 1
    31   13   21 am
    32   14   15 1
    33   14   51 1
    34   14   52 1
    35   15   20 1
    36   15   16 1
    37   16   17 1
    38   16   53 1
    39   16   54 1
    40   17   18 1
    41   17   55 1
    42   17   56 1
    43   18   19 1
    44   18   57 1
    45   18   68 1
    46   19   20 1
    47   19   58 1
    48   19   59 1
    49   20   60 1
    50   20   61 1
    51   21   22 2
    52   21   23 1
    53   23   27 1
    54   23   24 2
    55   24   25 1
    56   24   62 1
    57   25   26 2
    58   25   63 1
    59   26   27 1
    60   26   28 1
    61   28   33 ar
    62   28   29 ar
    63   29   30 ar
    64   29   64 1
    65   30   31 ar
    66   30   65 1
    67   31   32 ar
    68   31   34 1
    69   32   33 ar
    70   32   66 1
    71   33   67 1
@<TRIPOS>MOLECULE
ZINC39677327
   69    72     0     0     0
SMALL
USER_CHARGES

@<TRIPOS>ATOM
      1 C1          0.0186    4.1550    2.1976 C.3       1 <0>        -0.1004
      2 C2         -0.2127    3.4822    0.8691 C.2       1 <0>        -0.0909
      3 C3         -0.1367    4.2057   -0.3063 C.2       1 <0>        -0.1677
      4 C4         -0.3501    3.5702   -1.4843 C.2       1 <0>        -0.1487
      5 S1         -0.6707    1.8976   -0.9488 S.3       1 <0>         0.0610
      6 C5         -0.4930    2.1574    0.8085 C.2       1 <0>        -0.1978
      7 C6         -0.6224    1.1624    1.9328 C.3       1 <0>         0.2117
      8 N1         -2.0135    1.1211    2.3906 N.am      1 <0>        -0.7223
      9 C7         -2.3679    0.2963    3.3959 C.2       1 <0>         0.5116
     10 O1         -1.5352   -0.4117    3.9215 O.2       1 <0>        -0.5106
     11 C8         -3.7988    0.2538    3.8668 C.3       1 <0>        -0.1130
     12 H1         -4.4525    0.7286    3.1352 H         1 <0>         0.1160
     13 C9         -4.2402   -1.2060    4.1153 C.3       1 <0>         0.1124
     14 N2         -4.0184   -1.4226    5.5644 N.am      1 <0>        -0.6141
     15 C10        -4.4377   -0.1485    6.1960 C.3       1 <0>         0.1088
     16 C11        -3.9334    0.9454    5.2338 C.3       1 <0>        -0.0706
     17 C12        -4.9449    2.0846    5.1524 C.3       1 <0>        -0.1342
     18 C13        -5.0182    2.7940    6.5075 C.3       1 <0>        -0.0100
     19 N3         -3.6922    3.3145    6.8619 N.4       1 <0>        -0.5048
     20 C14        -2.7469    2.2040    7.0294 C.3       1 <0>        -0.0106
     21 C15        -2.5775    1.4698    5.6964 C.3       1 <0>        -0.1463
     22 C16        -3.5433   -2.5283    6.1712 C.2       1 <0>         0.5552
     23 O2         -3.4985   -2.5837    7.3819 O.2       1 <0>        -0.5078
     24 C17        -3.0677   -3.6956    5.3453 C.3       1 <0>         0.0785
     25 H2         -3.2480   -3.4914    4.2898 H         1 <0>         0.0934
     26 C18        -1.5699   -3.9066    5.5753 C.3       1 <0>        -0.1071
     27 C19        -1.1019   -5.1354    4.7931 C.3       1 <0>        -0.1503
     28 C20        -0.8016   -2.6735    5.0956 C.3       1 <0>        -0.1316
     29 O3         -3.7794   -4.8733    5.7308 O.3       1 <0>        -0.2907
     30 C21        -4.1078   -5.7469    4.7430 C.ar      1 <0>         0.1255
     31 C22        -4.7784   -6.9221    5.0494 C.ar      1 <0>        -0.1480
     32 C23        -5.1116   -7.8083    4.0434 C.ar      1 <0>        -0.0759
     33 C24        -4.7768   -7.5250    2.7321 C.ar      1 <0>        -0.1528
     34 C25        -4.1081   -6.3547    2.4242 C.ar      1 <0>        -0.0782
     35 C26        -3.7782   -5.4623    3.4258 C.ar      1 <0>        -0.2123
     36 H3          1.0782    4.1080    2.4490 H         1 <0>         0.0741
     37 H4         -0.2944    5.1973    2.1364 H         1 <0>         0.0682
     38 H5         -0.5606    3.6463    2.9682 H         1 <0>         0.0589
     39 H6          0.0891    5.2617   -0.2862 H         1 <0>         0.1379
     40 H7         -0.3315    3.9716   -2.4868 H         1 <0>         0.1910
     41 H8         -0.3267    0.1745    1.5796 H         1 <0>         0.0865
     42 H9          0.0231    1.4613    2.7587 H         1 <0>         0.0913
     43 H10        -2.6794    1.6873    1.9702 H         1 <0>         0.4030
     44 H11        -5.2947   -1.3312    3.8693 H         1 <0>         0.0943
     45 H12        -3.6284   -1.8928    3.5304 H         1 <0>         0.0924
     46 H13        -5.5234   -0.1062    6.2830 H         1 <0>         0.0861
     47 H14        -3.9721   -0.0381    7.1754 H         1 <0>         0.0892
     48 H15        -4.6325    2.7945    4.3865 H         1 <0>         0.0977
     49 H16        -5.9258    1.6828    4.8985 H         1 <0>         0.1217
     50 H17        -5.7280    3.6190    6.4475 H         1 <0>         0.1399
     51 H18        -5.3466    2.0875    7.2698 H         1 <0>         0.1331
     52 H19        -3.3650    3.9252    6.1284 H         1 <0>         0.4271
     53 H20        -1.7823    2.5942    7.3542 H         1 <0>         0.1382
     54 H21        -3.1294    1.5116    7.7793 H         1 <0>         0.1339
     55 H22        -1.8892    0.6345    5.8260 H         1 <0>         0.1320
     56 H23        -2.1795    2.1575    4.9502 H         1 <0>         0.0925
     57 H24        -1.3836   -4.0600    6.6383 H         1 <0>         0.0880
     58 H25        -1.2881   -4.9820    3.7301 H         1 <0>         0.0577
     59 H26        -0.0348   -5.2857    4.9570 H         1 <0>         0.0659
     60 H27        -1.6492   -6.0138    5.1348 H         1 <0>         0.0617
     61 H28        -1.0768   -1.8136    5.7064 H         1 <0>         0.0558
     62 H29         0.2694   -2.8551    5.1855 H         1 <0>         0.0595
     63 H30        -1.0500   -2.4734    4.0534 H         1 <0>         0.0671
     64 H31        -5.0395   -7.1441    6.0736 H         1 <0>         0.1323
     65 H32        -5.6336   -8.7233    4.2814 H         1 <0>         0.1329
     66 H33        -5.0378   -8.2193    1.9471 H         1 <0>         0.1270
     67 H34        -3.8474   -6.1358    1.3992 H         1 <0>         0.1260
     68 H35        -3.2597   -4.5462    3.1843 H         1 <0>         0.1257
     69 H36        -3.7557    3.8335    7.7248 H         1 <0>         0.4340
@<TRIPOS>BOND
     1    1    2 1
     2    1   36 1
     3    1   37 1
     4    1   38 1
     5    2    6 2
     6    2    3 1
     7    3    4 2
     8    3   39 1
     9    4    5 1
    10    4   40 1
    11    5    6 1
    12    6    7 1
    13    7    8 1
    14    7   41 1
    15    7   42 1
    16    8    9 am
    17    8   43 1
    18    9   10 2
    19    9   11 1
    20   11   12 1
    21   11   16 1
    22   11   13 1
    23   13   14 1
    24   13   44 1
    25   13   45 1
    26   14   15 1
    27   14   22 am
    28   15   16 1
    29   15   46 1
    30   15   47 1
    31   16   21 1
    32   16   17 1
    33   17   18 1
    34   17   48 1
    35   17   49 1
    36   18   19 1
    37   18   50 1
    38   18   51 1
    39   19   20 1
    40   19   52 1
    41   19   69 1
    42   20   21 1
    43   20   53 1
    44   20   54 1
    45   21   55 1
    46   21   56 1
    47   22   23 2
    48   22   24 1
    49   24   25 1
    50   24   26 1
    51   24   29 1
    52   26   27 1
    53   26   28 1
    54   26   57 1
    55   27   58 1
    56   27   59 1
    57   27   60 1
    58   28   61 1
    59   28   62 1
    60   28   63 1
    61   29   30 1
    62   30   35 ar
    63   30   31 ar
    64   31   32 ar
    65   31   64 1
    66   32   33 ar
    67   32   65 1
    68   33   34 ar
    69   33   66 1
    70   34   35 ar
    71   34   67 1
    72   35   68 1
@<TRIPOS>MOLECULE
ZINC39688178
   66    69     0     0     0
SMALL
USER_CHARGES

@<TRIPOS>ATOM
      1 C1          0.5958    1.4256   -0.3787 C.3       1 <0>        -0.1493
      2 C2          0.0157    0.0674    0.0209 C.3       1 <0>        -0.0941
      3 C3          0.7406   -0.4506    1.2363 C.ar      1 <0>        -0.0447
      4 C4          1.8722   -1.2317    1.0825 C.ar      1 <0>        -0.1236
      5 C5          2.5405   -1.7090    2.1910 C.ar      1 <0>        -0.0538
      6 C6          2.0726   -1.4023    3.4698 C.ar      1 <0>        -0.1493
      7 C7          0.9305   -0.6138    3.6179 C.ar      1 <0>        -0.0916
      8 C8          0.2748   -0.1382    2.5012 C.ar      1 <0>        -0.1250
      9 C9          2.7835   -1.9108    4.6622 C.2       1 <0>         0.5909
     10 O1          3.9633   -2.1946    4.5914 O.2       1 <0>        -0.5271
     11 N1          2.1234   -2.0597    5.8278 N.am      1 <0>        -0.6207
     12 C10         0.6724   -1.8917    6.0778 C.3       1 <0>         0.1027
     13 C11         0.3119   -3.0269    7.0621 C.3       1 <0>        -0.1147
     14 H1         -0.0685   -3.8926    6.5200 H         1 <0>         0.1133
     15 C12         1.6359   -3.3735    7.7633 C.3       1 <0>        -0.0720
     16 C13         2.6839   -2.4350    7.1480 C.3       1 <0>         0.1081
     17 C14         2.0134   -4.8265    7.4912 C.3       1 <0>        -0.1342
     18 C15         3.3029   -5.1637    8.2451 C.3       1 <0>        -0.0110
     19 N2          3.1008   -4.9506    9.6834 N.4       1 <0>        -0.5044
     20 C16         2.8294   -3.5323    9.9464 C.3       1 <0>        -0.0072
     21 C17         1.5200   -3.1260    9.2642 C.3       1 <0>        -0.1478
     22 C18        -0.7061   -2.5482    8.0649 C.2       1 <0>         0.5214
     23 O2         -0.7894   -1.3671    8.3278 O.2       1 <0>        -0.5189
     24 N3         -1.5239   -3.4325    8.6696 N.am      1 <0>        -0.7256
     25 C19        -2.5134   -2.9672    9.6445 C.3       1 <0>         0.1214
     26 C20        -3.3060   -4.1626   10.1770 C.3       1 <0>         0.0417
     27 O3         -2.4326   -5.0259   10.9076 O.3       1 <0>        -0.3170
     28 C21        -2.9826   -6.1439   11.4513 C.ar      1 <0>         0.1130
     29 C22        -4.3337   -6.4067   11.2798 C.ar      1 <0>        -0.1769
     30 C23        -4.8915   -7.5431   11.8330 C.ar      1 <0>        -0.1094
     31 C24        -4.1025   -8.4194   12.5586 C.ar      1 <0>         0.0699
     32 C25        -2.7538   -8.1582   12.7310 C.ar      1 <0>        -0.1139
     33 C26        -2.1921   -7.0258   12.1733 C.ar      1 <0>        -0.1236
     34 F1         -4.6492   -9.5302   13.0994 F         1 <0>        -0.1347
     35 H2          1.6557    1.3148   -0.6075 H         1 <0>         0.0579
     36 H3          0.0715    1.8002   -1.2578 H         1 <0>         0.0642
     37 H4          0.4735    2.1293    0.4447 H         1 <0>         0.0572
     38 H5         -1.0442    0.1781    0.2497 H         1 <0>         0.0773
     39 H6          0.1380   -0.6364   -0.8025 H         1 <0>         0.0780
     40 H7          2.2329   -1.4685    0.0925 H         1 <0>         0.1332
     41 H8          3.4235   -2.3189    2.0696 H         1 <0>         0.1344
     42 H9          0.5634   -0.3729    4.6046 H         1 <0>         0.1333
     43 H10        -0.6065    0.4757    2.6144 H         1 <0>         0.1313
     44 H11         0.4748   -0.9197    6.5297 H         1 <0>         0.1028
     45 H12         0.1117   -2.0012    5.1495 H         1 <0>         0.1016
     46 H13         3.6335   -2.9556    7.0241 H         1 <0>         0.0909
     47 H14         2.8124   -1.5506    7.7720 H         1 <0>         0.0851
     48 H15         1.2110   -5.4809    7.8319 H         1 <0>         0.0964
     49 H16         2.1696   -4.9678    6.4218 H         1 <0>         0.1182
     50 H17         3.5663   -6.2061    8.0660 H         1 <0>         0.1399
     51 H18         4.1087   -4.5199    7.8924 H         1 <0>         0.1344
     52 H19         2.3186   -5.5053    9.9976 H         1 <0>         0.4280
     53 H20         2.7437   -3.3722   11.0212 H         1 <0>         0.1395
     54 H21         3.6465   -2.9273    9.5535 H         1 <0>         0.1330
     55 H22         1.3286   -2.0682    9.4449 H         1 <0>         0.1242
     56 H23         0.6998   -3.7191    9.6686 H         1 <0>         0.1009
     57 H24        -1.4572   -4.3771    8.4593 H         1 <0>         0.4038
     58 H25        -2.0041   -2.4717   10.4710 H         1 <0>         0.0854
     59 H26        -3.1944   -2.2647    9.1639 H         1 <0>         0.0979
     60 H27        -4.1001   -3.8084   10.8343 H         1 <0>         0.0877
     61 H28        -3.7429   -4.7101    9.3418 H         1 <0>         0.0752
     62 H29        -4.9496   -5.7229   10.7144 H         1 <0>         0.1390
     63 H30        -5.9434   -7.7479   11.6996 H         1 <0>         0.1427
     64 H31        -2.1396   -8.8424   13.2976 H         1 <0>         0.1447
     65 H32        -1.1390   -6.8248   12.3038 H         1 <0>         0.1362
     66 H33         3.9310   -5.2312   10.1835 H         1 <0>         0.4342
@<TRIPOS>BOND
     1    1    2 1
     2    1   35 1
     3    1   36 1
     4    1   37 1
     5    2    3 1
     6    2   38 1
     7    2   39 1
     8    3    8 ar
     9    3    4 ar
    10    4    5 ar
    11    4   40 1
    12    5    6 ar
    13    5   41 1
    14    6    7 ar
    15    6    9 1
    16    7    8 ar
    17    7   42 1
    18    8   43 1
    19    9   10 2
    20    9   11 am
    21   11   16 1
    22   11   12 1
    23   12   13 1
    24   12   44 1
    25   12   45 1
    26   13   14 1
    27   13   15 1
    28   13   22 1
    29   15   21 1
    30   15   16 1
    31   15   17 1
    32   16   46 1
    33   16   47 1
    34   17   18 1
    35   17   48 1
    36   17   49 1
    37   18   19 1
    38   18   50 1
    39   18   51 1
    40   19   20 1
    41   19   52 1
    42   19   66 1
    43   20   21 1
    44   20   53 1
    45   20   54 1
    46   21   55 1
    47   21   56 1
    48   22   23 2
    49   22   24 am
    50   24   25 1
    51   24   57 1
    52   25   26 1
    53   25   58 1
    54   25   59 1
    55   26   27 1
    56   26   60 1
    57   26   61 1
    58   27   28 1
    59   28   33 ar
    60   28   29 ar
    61   29   30 ar
    62   29   62 1
    63   30   31 ar
    64   30   63 1
    65   31   32 ar
    66   31   34 1
    67   32   33 ar
    68   32   64 1
    69   33   65 1
@<TRIPOS>MOLECULE
ZINC15947064
   66    70     0     0     0
SMALL
USER_CHARGES

@<TRIPOS>ATOM
      1 C1          0.0433    1.3925   -0.1200 C.3       1 <0>        -0.1533
      2 C2          0.0629   -0.1373   -0.1038 C.3       1 <0>         0.0561
      3 O1         -1.2781   -0.6308   -0.0947 O.3       1 <0>        -0.3014
      4 C3         -1.4391   -1.9811   -0.0799 C.ar      1 <0>         0.1036
      5 C4         -0.3305   -2.8124   -0.0683 C.ar      1 <0>        -0.1429
      6 C5         -0.4958   -4.1848   -0.0528 C.ar      1 <0>        -0.1272
      7 C6         -1.7658   -4.7311   -0.0491 C.ar      1 <0>        -0.0995
      8 C7         -2.8760   -3.9075   -0.0610 C.ar      1 <0>        -0.1757
      9 C8         -2.7173   -2.5310   -0.0704 C.ar      1 <0>         0.1136
     10 O2         -3.8084   -1.7192   -0.0761 O.3       1 <0>        -0.2942
     11 C9         -5.0889   -2.3534   -0.0657 C.3       1 <0>         0.1023
     12 C10        -6.1697   -1.3032   -0.0739 C.ar      1 <0>        -0.1010
     13 C11        -6.6581   -0.8046    1.1193 C.ar      1 <0>        -0.0953
     14 C12        -7.6494    0.1587    1.1118 C.ar      1 <0>        -0.1229
     15 C13        -8.1521    0.6238   -0.0890 C.ar      1 <0>        -0.1059
     16 C14        -7.6631    0.1258   -1.2823 C.ar      1 <0>        -0.1211
     17 C15        -6.6687   -0.8344   -1.2748 C.ar      1 <0>        -0.0936
     18 C16         0.7109   -5.0873   -0.0402 C.3       1 <0>         0.3977
     19 H1          0.9975   -5.3122   -1.0676 H         1 <0>         0.1290
     20 N1          0.3649   -6.3439    0.6488 N.pl3     1 <0>        -0.6896
     21 C17         0.4416   -6.3269    2.0232 C.2       1 <0>         0.1213
     22 C18         1.2723   -5.4301    2.7073 C.2       1 <0>        -0.2569
     23 C19         1.2359   -5.5233    4.1525 C.2       1 <0>        -0.0036
     24 C20         0.4046   -6.4772    4.6367 C.2       1 <0>        -0.3328
     25 S1         -0.3089   -7.2240    3.1992 S.3       1 <0>         0.2936
     26 C21         0.1724   -6.7982    6.0787 C.3       1 <0>         0.1086
     27 N2          1.2559   -6.1872    6.8707 N.4       1 <0>        -0.3816
     28 C22         1.3997   -4.7732    6.5004 C.3       1 <0>        -0.0095
     29 C23         2.0362   -4.6525    5.1119 C.3       1 <0>        -0.0805
     30 C24         0.9337   -6.2882    8.3003 C.3       1 <0>         0.0242
     31 C25         0.6515   -7.7489    8.6576 C.3       1 <0>        -0.1859
     32 C26         2.1168   -5.7804    9.1269 C.3       1 <0>        -0.1832
     33 C27         2.0935   -4.4995    1.8907 C.2       1 <0>         0.4563
     34 N3          1.8126   -4.3995    0.6212 N.2       1 <0>        -0.6237
     35 O3          3.0968   -3.7806    2.4452 O.3       1 <0>        -0.4605
     36 H2          1.0663    1.7689   -0.1269 H         1 <0>         0.0804
     37 H3         -0.4776    1.7397   -1.0123 H         1 <0>         0.0691
     38 H4         -0.4726    1.7587    0.7676 H         1 <0>         0.0665
     39 H5          0.5789   -0.5035   -0.9913 H         1 <0>         0.0627
     40 H6          0.5839   -0.4846    0.7885 H         1 <0>         0.0571
     41 H7          0.6627   -2.3881   -0.0719 H         1 <0>         0.1432
     42 H8         -1.8909   -5.8038   -0.0373 H         1 <0>         0.1221
     43 H9         -3.8670   -4.3368   -0.0585 H         1 <0>         0.1377
     44 H10        -5.1889   -2.9846   -0.9487 H         1 <0>         0.0721
     45 H11        -5.1839   -2.9655    0.8312 H         1 <0>         0.0697
     46 H12        -6.2653   -1.1680    2.0575 H         1 <0>         0.1216
     47 H13        -8.0315    0.5477    2.0440 H         1 <0>         0.1263
     48 H14        -8.9272    1.3759   -0.0949 H         1 <0>         0.1267
     49 H15        -8.0561    0.4889   -2.2204 H         1 <0>         0.1276
     50 H16        -6.2841   -1.2207   -2.2071 H         1 <0>         0.1242
     51 H17         0.0977   -7.1384    0.1608 H         1 <0>         0.4240
     52 H18        -0.7881   -6.3916    6.3954 H         1 <0>         0.1382
     53 H19         0.1788   -7.8790    6.2200 H         1 <0>         0.1399
     54 H20         0.4174   -4.3009    6.4898 H         1 <0>         0.1314
     55 H21         2.0318   -4.2706    7.2324 H         1 <0>         0.1390
     56 H22         3.0694   -4.9976    5.1485 H         1 <0>         0.1089
     57 H23         2.0049   -3.6144    4.7810 H         1 <0>         0.1275
     58 H24         0.0527   -5.6842    8.5177 H         1 <0>         0.1385
     59 H25        -0.1914   -8.1106    8.0687 H         1 <0>         0.0826
     60 H26         1.5324   -8.3528    8.4402 H         1 <0>         0.0821
     61 H27         0.4123   -7.8238    9.7184 H         1 <0>         0.1066
     62 H28         2.2502   -4.7127    8.9525 H         1 <0>         0.0825
     63 H29         1.9218   -5.9541   10.1852 H         1 <0>         0.1073
     64 H30         3.0211   -6.3125    8.8319 H         1 <0>         0.0813
     65 H31         3.5630   -3.2088    1.8201 H         1 <0>         0.4151
     66 H32         2.1213   -6.6724    6.6866 H         1 <0>         0.4238
@<TRIPOS>BOND
     1    1    2 1
     2    1   36 1
     3    1   37 1
     4    1   38 1
     5    2    3 1
     6    2   39 1
     7    2   40 1
     8    3    4 1
     9    4    9 ar
    10    4    5 ar
    11    5    6 ar
    12    5   41 1
    13    6    7 ar
    14    6   18 1
    15    7    8 ar
    16    7   42 1
    17    8    9 ar
    18    8   43 1
    19    9   10 1
    20   10   11 1
    21   11   12 1
    22   11   44 1
    23   11   45 1
    24   12   17 ar
    25   12   13 ar
    26   13   14 ar
    27   13   46 1
    28   14   15 ar
    29   14   47 1
    30   15   16 ar
    31   15   48 1
    32   16   17 ar
    33   16   49 1
    34   17   50 1
    35   18   19 1
    36   18   34 1
    37   18   20 1
    38   20   21 1
    39   20   51 1
    40   21   25 1
    41   21   22 2
    42   22   23 1
    43   22   33 1
    44   23   29 1
    45   23   24 2
    46   24   25 1
    47   24   26 1
    48   26   27 1
    49   26   52 1
    50   26   53 1
    51   27   28 1
    52   27   30 1
    53   27   66 1
    54   28   29 1
    55   28   54 1
    56   28   55 1
    57   29   56 1
    58   29   57 1
    59   30   31 1
    60   30   32 1
    61   30   58 1
    62   31   59 1
    63   31   60 1
    64   31   61 1
    65   32   62 1
    66   32   63 1
    67   32   64 1
    68   33   34 2
    69   33   35 1
    70   35   65 1
@<TRIPOS>MOLECULE
ZINC12875294
   61    65     0     0     0
SMALL
USER_CHARGES
(1S,3R,3aR,6aS)-1-(1-hydroxyethyl)-5-[(4-methoxyphenyl)methyl]-6',7'-dimethyl-spiro[1,2,3a,6a-tetrahydropyrrolo[4,3-c]pyrrole-3,3'-indoline]-2',4,6-trione
@<TRIPOS>ATOM
      1 C1         -2.0093    4.6098    0.0426 C.3       1 <0>        -0.1334
      2 C2         -0.8491    3.6481    0.0278 C.ar      1 <0>        -0.0095
      3 C3          0.4465    4.1321    0.0179 C.ar      1 <0>        -0.1221
      4 C4          1.5120    3.2501    0.0042 C.ar      1 <0>        -0.0420
      5 C5          1.2822    1.8922   -0.0000 C.ar      1 <0>        -0.2010
      6 C6         -0.0169    1.3927    0.0097 C.ar      1 <0>         0.1703
      7 C7         -1.0839    2.2884    0.0195 C.ar      1 <0>        -0.0864
      8 C8         -2.4992    1.7706    0.0252 C.3       1 <0>        -0.1283
      9 N1          0.0021   -0.0041    0.0020 N.am      1 <0>        -0.6295
     10 C9          1.2567   -0.4944   -0.0164 C.2       1 <0>         0.5210
     11 O1          1.5770   -1.6642   -0.0308 O.2       1 <0>        -0.4474
     12 C10         2.1833    0.6908   -0.0153 C.3       1 <0>         0.0957
     13 C11         3.0989    0.6880   -1.2444 C.3       1 <0>        -0.1225
     14 H1          3.2204    1.6813   -1.6764 H         1 <0>         0.1764
     15 C12         4.4386    0.0865   -0.7354 C.3       1 <0>        -0.1320
     16 H2          5.2886    0.7504   -0.8928 H         1 <0>         0.1802
     17 C13         4.1861   -0.2364    0.7530 C.3       1 <0>         0.0483
     18 H3          3.8873   -1.2781    0.8699 H         1 <0>         0.1669
     19 C14         5.4398    0.0530    1.5809 C.3       1 <0>         0.0936
     20 H4          6.2640   -0.5616    1.2189 H         1 <0>         0.1176
     21 C15         5.1672   -0.2736    3.0505 C.3       1 <0>        -0.2067
     22 O2          5.7849    1.4341    1.4559 O.3       1 <0>        -0.5748
     23 C16         4.5383   -1.2182   -1.5231 C.2       1 <0>         0.5340
     24 O3          5.4446   -2.0186   -1.4363 O.2       1 <0>        -0.4381
     25 N2          3.4756   -1.3378   -2.3273 N.am      1 <0>        -0.5492
     26 C17         2.6042   -0.3253   -2.2512 C.2       1 <0>         0.5315
     27 O4          1.5781   -0.2345   -2.8903 O.2       1 <0>        -0.4379
     28 C18         3.2820   -2.4840   -3.2189 C.3       1 <0>         0.1507
     29 C19         3.9184   -2.1948   -4.5540 C.ar      1 <0>        -0.1730
     30 C20         3.1790   -1.5922   -5.5550 C.ar      1 <0>        -0.0524
     31 C21         3.7616   -1.3210   -6.7778 C.ar      1 <0>        -0.2119
     32 C22         5.0864   -1.6645   -7.0051 C.ar      1 <0>         0.1480
     33 C23         5.8245   -2.2742   -6.0010 C.ar      1 <0>        -0.1544
     34 C24         5.2390   -2.5378   -4.7779 C.ar      1 <0>        -0.0532
     35 O5          5.6600   -1.4046   -8.2094 O.3       1 <0>        -0.3129
     36 C25         4.8402   -0.7749   -9.1960 C.3       1 <0>         0.0243
     37 H5         -2.2985    4.8461   -0.9814 H         1 <0>         0.0891
     38 H6         -2.8522    4.1543    0.5623 H         1 <0>         0.0811
     39 H7         -1.7163    5.5247    0.5576 H         1 <0>         0.0825
     40 H8          0.6260    5.1971    0.0211 H         1 <0>         0.1488
     41 H9          2.5243    3.6263   -0.0027 H         1 <0>         0.1427
     42 H10        -2.8346    1.6414    1.0543 H         1 <0>         0.0836
     43 H11        -3.1490    2.4837   -0.4820 H         1 <0>         0.0872
     44 H12        -2.5375    0.8121   -0.4924 H         1 <0>         0.0680
     45 H13        -0.7952   -0.5565    0.0091 H         1 <0>         0.4362
     46 H14         4.9040   -1.3271    3.1458 H         1 <0>         0.0867
     47 H15         6.0604   -0.0675    3.6403 H         1 <0>         0.0934
     48 H16         4.3430    0.3410    3.4125 H         1 <0>         0.0627
     49 H17         6.5722    1.6895    1.9558 H         1 <0>         0.4147
     50 H18         3.7444   -3.3680   -2.7799 H         1 <0>         0.1111
     51 H19         2.2154   -2.6618   -3.3557 H         1 <0>         0.1072
     52 H20         2.1462   -1.3297   -5.3793 H         1 <0>         0.1281
     53 H21         3.1849   -0.8466   -7.5580 H         1 <0>         0.1334
     54 H22         6.8561   -2.5422   -6.1754 H         1 <0>         0.1371
     55 H23         5.8132   -3.0124   -3.9959 H         1 <0>         0.1346
     56 H24         4.4963    0.1891   -8.8213 H         1 <0>         0.0574
     57 H25         5.4190   -0.6250  -10.1074 H         1 <0>         0.1063
     58 H26         3.9801   -1.4086   -9.4120 H         1 <0>         0.0593
     59 N3          3.0830    0.6526    1.1248 N.4       1 <0>        -0.4839
     60 H27         2.5946    0.2860    1.9502 H         1 <0>         0.4406
     61 H28         3.4390    1.5940    1.3278 H         1 <0>         0.4523
@<TRIPOS>BOND
     1    1    2 1
     2    1   37 1
     3    1   38 1
     4    1   39 1
     5    2    7 ar
     6    2    3 ar
     7    3    4 ar
     8    3   40 1
     9    4    5 ar
    10    4   41 1
    11    5   12 1
    12    5    6 ar
    13    6    7 ar
    14    6    9 1
    15    7    8 1
    16    8   42 1
    17    8   43 1
    18    8   44 1
    19    9   10 am
    20    9   45 1
    21   10   11 2
    22   10   12 1
    23   12   13 1
    24   12   59 1
    25   13   14 1
    26   13   26 1
    27   13   15 1
    28   15   16 1
    29   15   17 1
    30   15   23 1
    31   17   18 1
    32   17   19 1
    33   17   59 1
    34   19   20 1
    35   19   21 1
    36   19   22 1
    37   21   46 1
    38   21   47 1
    39   21   48 1
    40   22   49 1
    41   23   24 2
    42   23   25 am
    43   25   26 am
    44   25   28 1
    45   26   27 2
    46   28   29 1
    47   28   50 1
    48   28   51 1
    49   29   34 ar
    50   29   30 ar
    51   30   31 ar
    52   30   52 1
    53   31   32 ar
    54   31   53 1
    55   32   33 ar
    56   32   35 1
    57   33   34 ar
    58   33   54 1
    59   34   55 1
    60   35   36 1
    61   36   56 1
    62   36   57 1
    63   36   58 1
    64   59   60 1
    65   59   61 1
@<TRIPOS>MOLECULE
ZINC24985759
   53    56     0     0     0
SMALL
USER_CHARGES

@<TRIPOS>ATOM
      1 C1          0.3711    1.4490   -0.2615 C.3       1 <0>        -0.1591
      2 C2         -0.0022   -0.0112    0.0018 C.3       1 <0>         0.1255
      3 H1         -1.0605   -0.0757    0.2548 H         1 <0>         0.1133
      4 C3          0.8213   -0.5415    1.1471 C.2       1 <0>         0.5195
      5 O1          1.8446   -1.1536    0.9258 O.2       1 <0>        -0.5183
      6 N1          0.4205   -0.3355    2.4173 N.am      1 <0>        -0.6147
      7 C4         -0.8691    0.3091    2.7002 C.3       1 <0>         0.0987
      8 C5         -0.6301    1.5008    3.6329 C.3       1 <0>        -0.1662
      9 C6          0.1244    1.0276    4.8760 C.3       1 <0>         0.1866
     10 C7          1.4808    0.4507    4.4698 C.3       1 <0>        -0.1237
     11 C8          1.2622   -0.7570    3.5455 C.3       1 <0>         0.1100
     12 C9          0.3238    2.1830    5.8198 C.2       1 <0>         0.0606
     13 C10        -0.4051    2.3671    6.9445 C.2       1 <0>         0.0459
     14 N2          0.0302    3.4762    7.5419 N.pl3     1 <0>        -0.4647
     15 C11         1.0014    3.9917    6.8327 C.cat     1 <0>         0.2974
     16 N3          1.2117    3.2095    5.7479 N.pl3     1 <0>        -0.4955
     17 H2          1.8711    3.3543    5.0514 H         1 <0>         0.4645
     18 C12        -1.5067    1.4287    7.3728 C.3       1 <0>        -0.0549
     19 C13        -1.8808    0.5573    6.1659 C.3       1 <0>         0.0477
     20 N4         -0.6641   -0.0066    5.5654 N.3       1 <0>        -0.6738
     21 N5          0.2621   -0.8071   -1.1994 N.am      1 <0>        -0.7145
     22 C14        -0.6638   -0.8813   -2.1759 C.2       1 <0>         0.5702
     23 O2         -1.7183   -0.2879   -2.0599 O.2       1 <0>        -0.5285
     24 C15        -0.3970   -1.6845   -3.3881 C.ar      1 <0>        -0.1298
     25 C16         0.8106   -2.3718   -3.5217 C.ar      1 <0>        -0.0810
     26 C17         1.0538   -3.1200   -4.6548 C.ar      1 <0>        -0.1111
     27 C18         0.1039   -3.1906   -5.6583 C.ar      1 <0>        -0.0786
     28 C19        -1.0961   -2.5116   -5.5327 C.ar      1 <0>        -0.0440
     29 C20        -1.3537   -1.7634   -4.4009 C.ar      1 <0>        -0.0490
     30 Cl1        -2.2817   -2.6062   -6.7973 Cl        1 <0>        -0.0528
     31 H3          1.4457    1.5251   -0.4275 H         1 <0>         0.0688
     32 H4         -0.1591    1.8060   -1.1445 H         1 <0>         0.0822
     33 H5          0.0925    2.0563    0.5997 H         1 <0>         0.0679
     34 H6         -1.3155    0.6578    1.7689 H         1 <0>         0.1061
     35 H7         -1.5365   -0.4048    3.1830 H         1 <0>         0.0799
     36 H8         -0.0392    2.2558    3.1143 H         1 <0>         0.0839
     37 H9         -1.5878    1.9283    3.9296 H         1 <0>         0.0925
     38 H10         2.0581    1.2128    3.9462 H         1 <0>         0.0755
     39 H11         2.0221    0.1321    5.3606 H         1 <0>         0.0975
     40 H12         0.7639   -1.5556    4.0949 H         1 <0>         0.0845
     41 H13         2.2229   -1.1118    3.1721 H         1 <0>         0.1082
     42 H14         1.5459    4.8927    7.0733 H         1 <0>         0.2692
     43 H15        -1.1563    0.7970    8.1891 H         1 <0>         0.1148
     44 H16        -2.3749    2.0027    7.6964 H         1 <0>         0.1069
     45 H17        -2.5334   -0.2527    6.4918 H         1 <0>         0.1099
     46 H18        -2.4011    1.1661    5.4264 H         1 <0>         0.0556
     47 H19        -0.8879   -0.7669    4.9409 H         1 <0>         0.3709
     48 H20         1.1036   -1.2806   -1.2919 H         1 <0>         0.4121
     49 H21         1.5534   -2.3176   -2.7395 H         1 <0>         0.1333
     50 H22         1.9881   -3.6517   -4.7590 H         1 <0>         0.1431
     51 H23         0.2996   -3.7775   -6.5436 H         1 <0>         0.1428
     52 H24        -2.2918   -1.2376   -4.3016 H         1 <0>         0.1484
     53 H25        -0.3174    3.8426    8.3701 H         1 <0>         0.4659
@<TRIPOS>BOND
     1    1    2 1
     2    1   31 1
     3    1   32 1
     4    1   33 1
     5    2    3 1
     6    2    4 1
     7    2   21 1
     8    4    5 2
     9    4    6 am
    10    6   11 1
    11    6    7 1
    12    7    8 1
    13    7   34 1
    14    7   35 1
    15    8    9 1
    16    8   36 1
    17    8   37 1
    18    9   20 1
    19    9   10 1
    20    9   12 1
    21   10   11 1
    22   10   38 1
    23   10   39 1
    24   11   40 1
    25   11   41 1
    26   12   16 1
    27   12   13 2
    28   13   14 1
    29   13   18 1
    30   14   15 2
    31   14   53 1
    32   15   16 1
    33   15   42 1
    34   16   17 1
    35   18   19 1
    36   18   43 1
    37   18   44 1
    38   19   20 1
    39   19   45 1
    40   19   46 1
    41   20   47 1
    42   21   22 am
    43   21   48 1
    44   22   23 2
    45   22   24 1
    46   24   29 ar
    47   24   25 ar
    48   25   26 ar
    49   25   49 1
    50   26   27 ar
    51   26   50 1
    52   27   28 ar
    53   27   51 1
    54   28   29 ar
    55   28   30 1
    56   29   52 1
@<TRIPOS>MOLECULE
ZINC44713845
   71    74     0     0     0
SMALL
USER_CHARGES

@<TRIPOS>ATOM
      1 C1          1.7050   -1.6668   -7.4521 C.3       1 <0>        -0.1030
      2 C2          2.4221   -1.6489   -6.1268 C.2       1 <0>         0.0937
      3 C3          1.9813   -1.0638   -4.9891 C.2       1 <0>        -0.2504
      4 C4          2.9413   -1.2786   -3.9948 C.2       1 <0>         0.0974
      5 N1          3.9232   -1.9680   -4.5168 N.2       1 <0>        -0.2804
      6 N2          3.6161   -2.2186   -5.8604 N.pl3     1 <0>        -0.4687
      7 H1          4.1656   -2.7124   -6.4889 H         1 <0>         0.4418
      8 C5          2.8592   -0.7983   -2.5687 C.3       1 <0>        -0.0836
      9 C6          0.6853   -0.3129   -4.8228 C.3       1 <0>         0.2246
     10 H2          0.4800   -0.1731   -3.7615 H         1 <0>         0.0972
     11 C7          0.7956    1.0521   -5.5051 C.3       1 <0>        -0.1570
     12 N3         -0.4042   -1.0778   -5.4344 N.am      1 <0>        -0.7251
     13 C8         -1.6804   -0.8412   -5.0712 C.2       1 <0>         0.5137
     14 O1         -1.9268    0.0051   -4.2381 O.2       1 <0>        -0.5083
     15 C9         -2.8011   -1.6281   -5.7003 C.3       1 <0>        -0.1147
     16 H3         -2.4448   -2.6086   -6.0159 H         1 <0>         0.1127
     17 C10        -3.9769   -1.7764   -4.7089 C.3       1 <0>         0.1191
     18 N4         -4.8976   -0.6669   -5.0513 N.am      1 <0>        -0.6155
     19 C11        -4.8634   -0.6032   -6.5321 C.3       1 <0>         0.0922
     20 C12        -3.3880   -0.8609   -6.8971 C.3       1 <0>        -0.0728
     21 C13        -3.2970   -1.7072   -8.1633 C.3       1 <0>        -0.1351
     22 C14        -3.8327   -0.9013   -9.3500 C.3       1 <0>        -0.0103
     23 N5         -3.0475    0.3295   -9.5026 N.4       1 <0>        -0.5046
     24 C15        -3.2153    1.1804   -8.3183 C.3       1 <0>        -0.0124
     25 C16        -2.6534    0.4626   -7.0879 C.3       1 <0>        -0.1514
     26 C17        -5.6063    0.1089   -4.2072 C.2       1 <0>         0.5526
     27 O2         -5.4730   -0.0199   -3.0087 O.2       1 <0>        -0.5050
     28 C18        -6.5643    1.1363   -4.7528 C.3       1 <0>        -0.0737
     29 C19        -5.7801    2.2256   -5.4872 C.3       1 <0>        -0.1060
     30 C20        -4.8096    2.8989   -4.5147 C.3       1 <0>        -0.1244
     31 C21        -5.5958    3.5260   -3.3617 C.3       1 <0>        -0.1190
     32 C22        -6.3800    2.4367   -2.6273 C.3       1 <0>        -0.1399
     33 C23        -7.3506    1.7634   -3.5997 C.3       1 <0>        -0.0952
     34 C24        -7.5349    0.4631   -5.7252 C.3       1 <0>        -0.1518
     35 H4          1.0571   -2.5418   -7.5029 H         1 <0>         0.0801
     36 H5          1.1037   -0.7632   -7.5521 H         1 <0>         0.0843
     37 H6          2.4356   -1.7082   -8.2600 H         1 <0>         0.0802
     38 H7          2.4474   -1.5893   -1.9420 H         1 <0>         0.0820
     39 H8          3.8567   -0.5369   -2.2154 H         1 <0>         0.0803
     40 H9          2.2142    0.0789   -2.5173 H         1 <0>         0.0798
     41 H10         1.0010    0.9123   -6.5664 H         1 <0>         0.0523
     42 H11        -0.1417    1.5953   -5.3848 H         1 <0>         0.0622
     43 H12         1.6063    1.6213   -5.0501 H         1 <0>         0.0718
     44 H13        -0.2071   -1.7547   -6.1007 H         1 <0>         0.3948
     45 H14        -4.4719   -2.7375   -4.8475 H         1 <0>         0.0844
     46 H15        -3.6238   -1.6743   -3.6827 H         1 <0>         0.1000
     47 H16        -5.5010   -1.3763   -6.9610 H         1 <0>         0.0852
     48 H17        -5.1744    0.3827   -6.8778 H         1 <0>         0.0938
     49 H18        -2.2570   -1.9772   -8.3466 H         1 <0>         0.0969
     50 H19        -3.8921   -2.6120   -8.0396 H         1 <0>         0.1224
     51 H20        -3.7535   -1.4975  -10.2591 H         1 <0>         0.1406
     52 H21        -4.8776   -0.6459   -9.1735 H         1 <0>         0.1326
     53 H22        -2.0724    0.0936   -9.6102 H         1 <0>         0.4278
     54 H23        -2.6809    2.1188   -8.4667 H         1 <0>         0.1400
     55 H24        -4.2748    1.3862   -8.1662 H         1 <0>         0.1319
     56 H25        -2.7946    1.0875   -6.2060 H         1 <0>         0.1278
     57 H26        -1.5901    0.2711   -7.2323 H         1 <0>         0.0975
     58 H27        -5.2200    1.7789   -6.3086 H         1 <0>         0.0548
     59 H28        -6.4731    2.9688   -5.8817 H         1 <0>         0.0778
     60 H29        -4.1166    2.1557   -4.1202 H         1 <0>         0.0688
     61 H30        -4.2509    3.6749   -5.0380 H         1 <0>         0.0614
     62 H31        -4.9044    4.0056   -2.6689 H         1 <0>         0.0636
     63 H32        -6.2888    4.2691   -3.7563 H         1 <0>         0.0596
     64 H33        -5.6871    1.6935   -2.2327 H         1 <0>         0.0966
     65 H34        -6.9402    2.8834   -1.8059 H         1 <0>         0.0624
     66 H35        -8.0435    2.5065   -3.9943 H         1 <0>         0.0703
     67 H36        -7.9092    0.9874   -3.0765 H         1 <0>         0.0692
     68 H37        -8.1493   -0.2571   -5.1850 H         1 <0>         0.0663
     69 H38        -8.1757    1.2184   -6.1802 H         1 <0>         0.0717
     70 H39        -6.9711   -0.0516   -6.5032 H         1 <0>         0.0578
     71 H40        -3.3624    0.8286  -10.3210 H         1 <0>         0.4342
@<TRIPOS>BOND
     1    1    2 1
     2    1   35 1
     3    1   36 1
     4    1   37 1
     5    2    6 1
     6    2    3 2
     7    3    4 1
     8    3    9 1
     9    4    5 2
    10    4    8 1
    11    5    6 1
    12    6    7 1
    13    8   38 1
    14    8   39 1
    15    8   40 1
    16    9   10 1
    17    9   11 1
    18    9   12 1
    19   11   41 1
    20   11   42 1
    21   11   43 1
    22   12   13 am
    23   12   44 1
    24   13   14 2
    25   13   15 1
    26   15   16 1
    27   15   20 1
    28   15   17 1
    29   17   18 1
    30   17   45 1
    31   17   46 1
    32   18   19 1
    33   18   26 am
    34   19   20 1
    35   19   47 1
    36   19   48 1
    37   20   25 1
    38   20   21 1
    39   21   22 1
    40   21   49 1
    41   21   50 1
    42   22   23 1
    43   22   51 1
    44   22   52 1
    45   23   24 1
    46   23   53 1
    47   23   71 1
    48   24   25 1
    49   24   54 1
    50   24   55 1
    51   25   56 1
    52   25   57 1
    53   26   27 2
    54   26   28 1
    55   28   33 1
    56   28   29 1
    57   28   34 1
    58   29   30 1
    59   29   58 1
    60   29   59 1
    61   30   31 1
    62   30   60 1
    63   30   61 1
    64   31   32 1
    65   31   62 1
    66   31   63 1
    67   32   33 1
    68   32   64 1
    69   32   65 1
    70   33   66 1
    71   33   67 1
    72   34   68 1
    73   34   69 1
    74   34   70 1
@<TRIPOS>MOLECULE
ZINC39760484
   53    56     0     0     0
SMALL
USER_CHARGES

@<TRIPOS>ATOM
      1 C1         -0.6715   -0.3471    0.2418 C.3       1 <0>        -0.1675
      2 C2         -0.3832   -1.8396    0.0682 C.3       1 <0>         0.1506
      3 C3         -1.7037   -2.6077   -0.0165 C.3       1 <0>        -0.1617
      4 N1          0.3832   -2.0489   -1.1627 N.am      1 <0>        -0.7306
      5 C4          1.7251   -1.9230   -1.1507 C.2       1 <0>         0.6926
      6 O1          2.2993   -1.6359   -0.1187 O.2       1 <0>        -0.5206
      7 N2          2.4301   -2.1156   -2.2830 N.am      1 <0>        -0.6887
      8 C5          3.7720   -1.9897   -2.2710 C.2       1 <0>         0.5315
      9 O2          4.3447   -1.7033   -1.2416 O.2       1 <0>        -0.4346
     10 C6          4.5603   -2.2050   -3.5372 C.3       1 <0>        -0.1208
     11 S1          6.3262   -1.9659   -3.1980 S.3       1 <0>        -0.1567
     12 C7          7.1243   -2.2568   -4.8008 C.3       1 <0>         0.3698
     13 H1          8.2033   -2.1261   -4.7178 H         1 <0>         0.1361
     14 N3          6.5730   -1.3515   -5.8224 N.pl3     1 <0>        -0.5845
     15 N4          5.9941   -2.1647   -6.8037 N.2       1 <0>        -0.1740
     16 C8          6.1242   -3.4310   -6.5081 C.2       1 <0>         0.2603
     17 N5          6.8057   -3.6055   -5.2974 N.pl3     1 <0>        -0.6075
     18 C9          7.1366   -4.8777   -4.6506 C.3       1 <0>         0.0759
     19 C10         7.8134   -4.8183   -3.2797 C.3       1 <0>        -0.1572
     20 C11         8.6177   -5.2358   -4.5125 C.3       1 <0>        -0.1892
     21 C12         5.6429   -4.4825   -7.3030 C.2       1 <0>         0.1350
     22 C13         5.0473   -4.3847   -8.5610 C.ar      1 <0>        -0.1418
     23 C14         4.7521   -3.2836   -9.3927 C.ar      1 <0>        -0.0114
     24 C15         4.1553   -3.4888  -10.5952 C.ar      1 <0>        -0.1489
     25 C16         3.8221   -4.7709  -11.0369 C.ar      1 <0>         0.0476
     26 C17         4.0765   -5.8735  -10.2899 C.ar      1 <0>        -0.2051
     27 C18         4.6982   -5.7383   -9.0218 C.ar      1 <0>         0.3149
     28 N6          5.0466   -6.6363   -8.1211 N.pl3     1 <0>        -0.5989
     29 C19         5.6673   -5.9598   -6.9781 C.3       1 <0>         0.0779
     30 H2          0.2693    0.2001    0.3021 H         1 <0>         0.0615
     31 H3         -1.2475    0.0133   -0.6105 H         1 <0>         0.0578
     32 H4         -1.2418   -0.1913    1.1576 H         1 <0>         0.0721
     33 H5          0.1928   -2.1999    0.9205 H         1 <0>         0.0928
     34 H6         -2.2797   -2.2473   -0.8688 H         1 <0>         0.0625
     35 H7         -1.4983   -3.6710   -0.1402 H         1 <0>         0.0624
     36 H8         -2.2739   -2.4519    0.8993 H         1 <0>         0.0798
     37 H9         -0.0750   -2.2781   -1.9863 H         1 <0>         0.3972
     38 H10         1.9719   -2.3448   -3.1067 H         1 <0>         0.4080
     39 H11         4.3943   -3.2191   -3.9006 H         1 <0>         0.1105
     40 H12         4.2356   -1.4903   -4.2934 H         1 <0>         0.1151
     41 H13         6.6042   -0.3820   -5.8165 H         1 <0>         0.4687
     42 H14         6.4364   -5.6932   -4.8316 H         1 <0>         0.1320
     43 H15         8.0125   -3.8326   -2.8591 H         1 <0>         0.1161
     44 H16         7.5584   -5.5947   -2.5585 H         1 <0>         0.1173
     45 H17         8.8918   -6.2869   -4.6023 H         1 <0>         0.1125
     46 H18         9.3459   -4.5248   -4.9028 H         1 <0>         0.1030
     47 H19         4.9993   -2.2818   -9.0740 H         1 <0>         0.1607
     48 H20         3.9328   -2.6399  -11.2248 H         1 <0>         0.1558
     49 H21         3.3481   -4.8875  -12.0003 H         1 <0>         0.1608
     50 H22         3.8064   -6.8518  -10.6591 H         1 <0>         0.1607
     51 H23         6.6953   -6.2992   -6.8512 H         1 <0>         0.1750
     52 H24         5.0927   -6.1544   -6.0725 H         1 <0>         0.1704
     53 H25         4.9166   -7.5940   -8.2037 H         1 <0>         0.4551
@<TRIPOS>BOND
     1    1    2 1
     2    1   30 1
     3    1   31 1
     4    1   32 1
     5    2    3 1
     6    2    4 1
     7    2   33 1
     8    3   34 1
     9    3   35 1
    10    3   36 1
    11    4    5 am
    12    4   37 1
    13    5    6 2
    14    5    7 am
    15    7    8 am
    16    7   38 1
    17    8    9 2
    18    8   10 1
    19   10   11 1
    20   10   39 1
    21   10   40 1
    22   11   12 1
    23   12   13 1
    24   12   17 1
    25   12   14 1
    26   14   15 1
    27   14   41 1
    28   15   16 2
    29   16   17 1
    30   16   21 1
    31   17   18 1
    32   18   20 1
    33   18   19 1
    34   18   42 1
    35   19   20 1
    36   19   43 1
    37   19   44 1
    38   20   45 1
    39   20   46 1
    40   21   29 1
    41   21   22 2
    42   22   27 ar
    43   22   23 ar
    44   23   24 ar
    45   23   47 1
    46   24   25 ar
    47   24   48 1
    48   25   26 ar
    49   25   49 1
    50   26   27 ar
    51   26   50 1
    52   27   28 2
    53   28   29 1
    54   28   53 1
    55   29   51 1
    56   29   52 1
@<TRIPOS>MOLECULE
ZINC63934031
   56    60     0     0     0
SMALL
USER_CHARGES

@<TRIPOS>ATOM
      1 C1         -2.4837   -0.4537   -1.1071 C.3       1 <0>        -0.1192
      2 C2         -1.1784   -0.9416   -0.5335 C.ar      1 <0>        -0.0729
      3 C3          0.0066   -0.6890   -1.2004 C.ar      1 <0>        -0.1031
      4 C4          1.2063   -1.1346   -0.6772 C.ar      1 <0>        -0.1057
      5 C5          1.2248   -1.8338    0.5140 C.ar      1 <0>        -0.0993
      6 C6          0.0368   -2.0890    1.1860 C.ar      1 <0>         0.1188
      7 C7         -1.1662   -1.6355    0.6604 C.ar      1 <0>        -0.1061
      8 N1          0.0521   -2.7974    2.3926 N.am      1 <0>        -0.5626
      9 C8          0.1531   -2.0524    3.6391 C.3       1 <0>         0.5034
     10 H1         -0.4486   -1.1469    3.5601 H         1 <0>         0.1214
     11 N2         -0.3079   -2.8275    4.7792 N.2       1 <0>        -0.6051
     12 C9         -0.3982   -4.1006    4.7919 C.2       1 <0>         0.4070
     13 C10        -0.0369   -4.9553    3.6125 C.3       1 <0>        -0.0936
     14 H2         -0.7663   -5.7591    3.5127 H         1 <0>         0.1401
     15 C11        -0.0323   -4.1334    2.3549 C.2       1 <0>         0.5245
     16 O1         -0.1023   -4.6929    1.2810 O.2       1 <0>        -0.4906
     17 C12         1.3528   -5.5571    3.8302 C.3       1 <0>         0.1152
     18 H3          1.6586   -6.1067    2.9400 H         1 <0>         0.0897
     19 C13         1.3231   -6.5013    5.0344 C.3       1 <0>         0.0882
     20 H4          0.9157   -5.9923    5.9079 H         1 <0>         0.1913
     21 C14         2.7679   -6.9191    5.2840 C.2       1 <0>         0.0594
     22 C15         2.7797   -8.2441    5.2892 C.ar      1 <0>        -0.1274
     23 C16         3.8480   -9.2185    5.5601 C.ar      1 <0>        -0.0764
     24 C17         3.5138  -10.5347    5.4630 C.ar      1 <0>         0.0948
     25 C18         2.2327  -10.9957    5.1261 C.ar      1 <0>        -0.0262
     26 C19         1.1750  -10.1866    4.8625 C.ar      1 <0>        -0.1541
     27 C20         1.4109   -8.7386    4.9415 C.ar      1 <0>         0.3227
     28 N3          0.5796   -7.7316    4.7662 N.pl3     1 <0>        -0.5694
     29 O2          4.4806  -11.4584    5.7071 O.3       1 <0>        -0.3039
     30 C21         4.1064  -12.8333    5.5992 C.3       1 <0>         0.0137
     31 C22         3.8799   -5.9031    5.3826 C.3       1 <0>        -0.0814
     32 C23         3.7054   -4.9571    4.1804 C.3       1 <0>         0.0594
     33 N4          2.3204   -4.4835    4.1069 N.3       1 <0>        -0.6879
     34 O3         -0.8374   -4.7047    5.9155 O.3       1 <0>        -0.4761
     35 O4          1.5178   -1.6852    3.8510 O.3       1 <0>        -0.5688
     36 H5         -2.6933    0.5483   -0.7326 H         1 <0>         0.0767
     37 H6         -2.4157   -0.4281   -2.1947 H         1 <0>         0.0732
     38 H7         -3.2864   -1.1282   -0.8090 H         1 <0>         0.0681
     39 H8         -0.0052   -0.1429   -2.1320 H         1 <0>         0.1315
     40 H9          2.1299   -0.9360   -1.2005 H         1 <0>         0.1324
     41 H10         2.1622   -2.1819    0.9220 H         1 <0>         0.1223
     42 H11        -2.0914   -1.8288    1.1828 H         1 <0>         0.1234
     43 H12         4.8477   -8.9053    5.8225 H         1 <0>         0.1739
     44 H13         2.0779  -12.0632    5.0725 H         1 <0>         0.1661
     45 H14         0.2057  -10.5885    4.6069 H         1 <0>         0.1784
     46 H15         4.9688  -13.4628    5.8185 H         1 <0>         0.1170
     47 H16         3.3087  -13.0496    6.3098 H         1 <0>         0.0644
     48 H17         3.7564  -13.0362    4.5871 H         1 <0>         0.0643
     49 H18         3.7950   -5.3441    6.3145 H         1 <0>         0.1299
     50 H19         4.8481   -6.4011    5.3300 H         1 <0>         0.1188
     51 H20         4.3738   -4.1034    4.2923 H         1 <0>         0.1156
     52 H21         3.9536   -5.4899    3.2624 H         1 <0>         0.0523
     53 H22         2.2292   -3.7334    3.4382 H         1 <0>         0.3812
     54 H23        -1.0508   -4.0928    6.6333 H         1 <0>         0.4249
     55 H24         1.6685   -1.1841    4.6642 H         1 <0>         0.4083
     56 H25        -0.3527   -7.7860    4.5040 H         1 <0>         0.4572
@<TRIPOS>BOND
     1    1    2 1
     2    1   36 1
     3    1   37 1
     4    1   38 1
     5    2    7 ar
     6    2    3 ar
     7    3    4 ar
     8    3   39 1
     9    4    5 ar
    10    4   40 1
    11    5    6 ar
    12    5   41 1
    13    6    7 ar
    14    6    8 1
    15    7   42 1
    16    8   15 am
    17    8    9 1
    18    9   10 1
    19    9   11 1
    20    9   35 1
    21   11   12 2
    22   12   13 1
    23   12   34 1
    24   13   14 1
    25   13   15 1
    26   13   17 1
    27   15   16 2
    28   17   18 1
    29   17   33 1
    30   17   19 1
    31   19   20 1
    32   19   28 1
    33   19   21 1
    34   21   22 2
    35   21   31 1
    36   22   27 ar
    37   22   23 ar
    38   23   24 ar
    39   23   43 1
    40   24   25 ar
    41   24   29 1
    42   25   26 ar
    43   25   44 1
    44   26   27 ar
    45   26   45 1
    46   27   28 2
    47   28   56 1
    48   29   30 1
    49   30   46 1
    50   30   47 1
    51   30   48 1
    52   31   32 1
    53   31   49 1
    54   31   50 1
    55   32   33 1
    56   32   51 1
    57   32   52 1
    58   33   53 1
    59   34   54 1
    60   35   55 1
@<TRIPOS>MOLECULE
ZINC20274830
   32    33     0     0     0
SMALL
USER_CHARGES
[5-(4-chloro-3,5-dimethyl-phenoxy)-2-furyl]methanamine
@<TRIPOS>ATOM
      1 C1         -2.4723   -4.2062   -0.2036 C.3       1 <0>        -0.1201
      2 C2         -2.4332   -2.6997   -0.1979 C.ar      1 <0>        -0.0372
      3 C3         -1.2229   -2.0411   -0.0999 C.ar      1 <0>        -0.1910
      4 C4         -1.1875   -0.6539   -0.0947 C.ar      1 <0>         0.0938
      5 C5         -2.3688    0.0687   -0.1826 C.ar      1 <0>        -0.1214
      6 C6         -3.5766   -0.5938   -0.2847 C.ar      1 <0>        -0.0275
      7 C7         -3.6097   -1.9772   -0.2902 C.ar      1 <0>        -0.0583
      8 Cl1        -5.1294   -2.8073   -0.4126 Cl        1 <0>        -0.0445
      9 C8         -4.8595    0.1905   -0.3844 C.3       1 <0>        -0.1347
     10 O1          0.0021   -0.0041    0.0020 O.3       1 <0>        -0.1805
     11 C9          1.1132   -0.7426    0.2526 C.2       1 <0>         0.2269
     12 C10         2.3852   -0.2855    0.2472 C.2       1 <0>        -0.2210
     13 C11         3.2163   -1.3866    0.5586 C.2       1 <0>        -0.0993
     14 C12         2.4096   -2.4476    0.7354 C.2       1 <0>        -0.1405
     15 O2          1.1364   -2.0516    0.5539 O.3       1 <0>        -0.1830
     16 C13         2.8558   -3.8441    1.0844 C.3       1 <0>         0.1038
     17 N1          2.8968   -3.9943    2.5451 N.4       1 <0>        -0.6888
     18 H1         -1.4483   -4.5999   -0.1229 H         1 <0>         0.0664
     19 H2         -2.9274   -4.5576   -1.1414 H         1 <0>         0.0848
     20 H3         -3.0697   -4.5607    0.6493 H         1 <0>         0.0828
     21 H4         -0.3049   -2.6054   -0.0279 H         1 <0>         0.1607
     22 H5         -2.3437    1.1484   -0.1741 H         1 <0>         0.1500
     23 H6         -5.7092   -0.5042   -0.4576 H         1 <0>         0.0838
     24 H7         -4.8301    0.8294   -1.2794 H         1 <0>         0.0860
     25 H8         -4.9756    0.8188    0.5110 H         1 <0>         0.0852
     26 H9          2.7052    0.7258    0.0443 H         1 <0>         0.1731
     27 H10         4.2932   -1.3769    0.6393 H         1 <0>         0.1706
     28 H11         2.1481   -4.5718    0.6607 H         1 <0>         0.1420
     29 H12         3.8585   -4.0232    0.6691 H         1 <0>         0.1573
     30 H13         3.2225   -5.0136    2.7999 H         1 <0>         0.4637
     31 H14         1.8941   -3.8152    2.9604 H         1 <0>         0.4585
     32 H15         3.6045   -3.2666    2.9688 H         1 <0>         0.4583
@<TRIPOS>BOND
     1    1    2 1
     2    1   18 1
     3    1   19 1
     4    1   20 1
     5    2    7 ar
     6    2    3 ar
     7    3    4 ar
     8    3   21 1
     9    4    5 ar
    10    4   10 1
    11    5    6 ar
    12    5   22 1
    13    6    7 ar
    14    6    9 1
    15    7    8 1
    16    9   23 1
    17    9   24 1
    18    9   25 1
    19   10   11 1
    20   11   15 1
    21   11   12 2
    22   12   13 1
    23   12   26 1
    24   13   14 2
    25   13   27 1
    26   14   15 1
    27   14   16 1
    28   16   17 1
    29   16   28 1
    30   16   29 1
    31   17   30 1
    32   17   31 1
    33   17   32 1
@<TRIPOS>MOLECULE
ZINC40509637
   46    47     0     0     0
SMALL
USER_CHARGES

@<TRIPOS>ATOM
      1 C1         -0.0187    1.5258    0.0104 C.3       1 <0>        -0.1574
      2 C2          0.0021   -0.0041    0.0020 C.3       1 <0>        -0.1169
      3 C3          0.7421   -0.5109    1.2415 C.3       1 <0>        -0.0869
      4 H1          0.2852   -0.0874    2.1360 H         1 <0>         0.0944
      5 C4          2.2100   -0.0858    1.1685 C.3       1 <0>        -0.1112
      6 C5          2.9500   -0.5926    2.4081 C.3       1 <0>        -0.1264
      7 C6          2.8633   -2.1191    2.4651 C.3       1 <0>        -0.1113
      8 C7          1.3954   -2.5442    2.5382 C.3       1 <0>        -0.1388
      9 C8          0.6554   -2.0374    1.2986 C.3       1 <0>         0.1001
     10 H2         -0.3904   -2.3402    1.3506 H         1 <0>         0.0952
     11 O1          1.2544   -2.5927    0.1260 O.3       1 <0>        -0.3004
     12 C9          0.7604   -3.7763   -0.3164 C.ar      1 <0>         0.3683
     13 C10         1.3053   -4.3692   -1.4484 C.ar      1 <0>        -0.2639
     14 C11         0.7927   -5.5766   -1.8890 C.ar      1 <0>         0.0287
     15 C12        -0.2522   -6.1512   -1.1782 C.ar      1 <0>        -0.2148
     16 C13        -0.7448   -5.5059   -0.0617 C.ar      1 <0>         0.2191
     17 N1         -0.2317   -4.3573    0.3371 N.ar      1 <0>        -0.5388
     18 C14        -1.8789   -6.1237    0.7149 C.3       1 <0>        -0.1214
     19 C15         1.3555   -6.2522   -3.1129 C.3       1 <0>        -0.1375
     20 C16         2.4393   -3.7060   -2.1870 C.3       1 <0>         0.0591
     21 N2          3.7198   -4.1666   -1.6337 N.4       1 <0>        -0.6363
     22 H3          1.0039    1.9031    0.0027 H         1 <0>         0.0581
     23 H4         -0.5459    1.8868   -0.8726 H         1 <0>         0.0571
     24 H5         -0.5289    1.8773    0.9072 H         1 <0>         0.0575
     25 H6         -1.0205   -0.3814    0.0098 H         1 <0>         0.0612
     26 H7          0.5123   -0.3556   -0.8948 H         1 <0>         0.0614
     27 H8          2.6669   -0.5093    0.2741 H         1 <0>         0.0609
     28 H9          2.2717    1.0017    1.1279 H         1 <0>         0.0714
     29 H10         3.9958   -0.2898    2.3560 H         1 <0>         0.0660
     30 H11         2.4931   -0.1691    3.3025 H         1 <0>         0.0677
     31 H12         3.3202   -2.5427    1.5707 H         1 <0>         0.0507
     32 H13         3.3905   -2.4802    3.3482 H         1 <0>         0.0664
     33 H14         1.3337   -3.6317    2.5788 H         1 <0>         0.0680
     34 H15         0.9385   -2.1207    3.4326 H         1 <0>         0.0850
     35 H16        -0.6754   -7.0928   -1.4954 H         1 <0>         0.1496
     36 H17        -1.4759   -6.7746    1.4908 H         1 <0>         0.0931
     37 H18        -2.4756   -5.3361    1.1752 H         1 <0>         0.0873
     38 H19        -2.5057   -6.7071    0.0405 H         1 <0>         0.0884
     39 H20         2.1679   -6.9170   -2.8197 H         1 <0>         0.0882
     40 H21         0.5714   -6.8303   -3.6018 H         1 <0>         0.0933
     41 H22         1.7343   -5.4978   -3.8025 H         1 <0>         0.0777
     42 H23         2.3857   -3.9660   -3.2441 H         1 <0>         0.1414
     43 H24         2.3629   -2.6245   -2.0745 H         1 <0>         0.1436
     44 H25         4.4790   -3.7226   -2.1282 H         1 <0>         0.4375
     45 H26         3.7694   -3.9260   -0.6551 H         1 <0>         0.4345
     46 H27         3.7905   -5.1678   -1.7378 H         1 <0>         0.4309
@<TRIPOS>BOND
     1    1    2 1
     2    1   22 1
     3    1   23 1
     4    1   24 1
     5    2    3 1
     6    2   25 1
     7    2   26 1
     8    3    4 1
     9    3    9 1
    10    3    5 1
    11    5    6 1
    12    5   27 1
    13    5   28 1
    14    6    7 1
    15    6   29 1
    16    6   30 1
    17    7    8 1
    18    7   31 1
    19    7   32 1
    20    8    9 1
    21    8   33 1
    22    8   34 1
    23    9   10 1
    24    9   11 1
    25   11   12 1
    26   12   17 ar
    27   12   13 ar
    28   13   14 ar
    29   13   20 1
    30   14   15 ar
    31   14   19 1
    32   15   16 ar
    33   15   35 1
    34   16   17 ar
    35   16   18 1
    36   18   36 1
    37   18   37 1
    38   18   38 1
    39   19   39 1
    40   19   40 1
    41   19   41 1
    42   20   21 1
    43   20   42 1
    44   20   43 1
    45   21   44 1
    46   21   45 1
    47   21   46 1
@<TRIPOS>MOLECULE
ZINC43467680
   49    50     0     0     0
SMALL
USER_CHARGES

@<TRIPOS>ATOM
      1 C1          0.4120    1.6006    0.2261 C.3       1 <0>        -0.1607
      2 C2          0.3408    0.0735    0.1643 C.3       1 <0>        -0.1154
      3 C3          1.0179   -0.5191    1.4017 C.3       1 <0>        -0.0564
      4 C4          2.4824   -0.0781    1.4421 C.3       1 <0>        -0.1496
      5 C5          0.3018   -0.0257    2.6605 C.3       1 <0>        -0.1465
      6 C6          0.9467   -2.0462    1.3399 C.3       1 <0>        -0.0773
      7 C7         -0.5178   -2.4873    1.2995 C.3       1 <0>        -0.1166
      8 C8         -0.5890   -4.0144    1.2377 C.3       1 <0>        -0.1285
      9 C9          0.0882   -4.6070    2.4751 C.3       1 <0>         0.1528
     10 C10         1.5527   -4.1659    2.5155 C.3       1 <0>        -0.1306
     11 C11         1.6239   -2.6389    2.5773 C.3       1 <0>        -0.1157
     12 C12        -0.6172   -4.1210    3.7150 C.2       1 <0>        -0.3007
     13 C13        -1.9699   -3.7783    3.8114 C.2       1 <0>         0.0694
     14 N1         -2.2101   -3.4045    5.0419 N.2       1 <0>        -0.2671
     15 N2         -1.0161   -3.4976    5.7686 N.pl3     1 <0>        -0.3476
     16 C14        -0.0552   -3.9446    4.9332 C.2       1 <0>         0.1000
     17 C15        -0.8426   -3.1727    7.1866 C.3       1 <0>         0.1198
     18 C16        -1.3214   -1.7426    7.4444 C.3       1 <0>        -0.1694
     19 N3          0.0198   -6.0732    2.4158 N.4       1 <0>        -0.6354
     20 H1          1.4553    1.9148    0.2549 H         1 <0>         0.0585
     21 H2         -0.0704    2.0228   -0.6554 H         1 <0>         0.0553
     22 H3         -0.0982    1.9521    1.1229 H         1 <0>         0.0572
     23 H4         -0.7025   -0.2407    0.1355 H         1 <0>         0.0631
     24 H5          0.8510   -0.2780   -0.7325 H         1 <0>         0.0621
     25 H6          2.5332    1.0098    1.4862 H         1 <0>         0.0625
     26 H7          2.9648   -0.5003    2.3237 H         1 <0>         0.0551
     27 H8          2.9926   -0.4296    0.5453 H         1 <0>         0.0562
     28 H9         -0.7415   -0.3399    2.6317 H         1 <0>         0.0551
     29 H10         0.7842   -0.4479    3.5421 H         1 <0>         0.0515
     30 H11         0.3525    1.0622    2.7046 H         1 <0>         0.0608
     31 H12         1.4569   -2.3977    0.4431 H         1 <0>         0.0753
     32 H13        -1.0280   -2.1358    2.1963 H         1 <0>         0.0822
     33 H14        -1.0002   -2.0651    0.4180 H         1 <0>         0.0841
     34 H15        -1.6323   -4.3286    1.2089 H         1 <0>         0.0866
     35 H16        -0.0788   -4.3659    0.3409 H         1 <0>         0.0883
     36 H17         2.0351   -4.5881    3.3971 H         1 <0>         0.0828
     37 H18         2.0629   -4.5175    1.6187 H         1 <0>         0.0894
     38 H19         2.6672   -2.3246    2.6061 H         1 <0>         0.0835
     39 H20         1.1137   -2.2873    3.4741 H         1 <0>         0.0790
     40 H21        -2.6914   -3.8159    3.0086 H         1 <0>         0.1883
     41 H22         0.9779   -4.1264    5.1902 H         1 <0>         0.1806
     42 H23        -1.4262   -3.8660    7.7923 H         1 <0>         0.0966
     43 H24         0.2112   -3.2564    7.4522 H         1 <0>         0.1038
     44 H25        -1.1923   -1.5008    8.4994 H         1 <0>         0.0852
     45 H26        -0.7378   -1.0493    6.8387 H         1 <0>         0.0632
     46 H27        -2.3752   -1.6588    7.1788 H         1 <0>         0.0744
     47 H28         0.4921   -6.3986    1.5856 H         1 <0>         0.4313
     48 H29         0.4664   -6.4640    3.2318 H         1 <0>         0.4304
     49 H30        -0.9460   -6.3641    2.3891 H         1 <0>         0.4330
@<TRIPOS>BOND
     1    1    2 1
     2    1   20 1
     3    1   21 1
     4    1   22 1
     5    2    3 1
     6    2   23 1
     7    2   24 1
     8    3    4 1
     9    3    5 1
    10    3    6 1
    11    4   25 1
    12    4   26 1
    13    4   27 1
    14    5   28 1
    15    5   29 1
    16    5   30 1
    17    6   11 1
    18    6    7 1
    19    6   31 1
    20    7    8 1
    21    7   32 1
    22    7   33 1
    23    8    9 1
    24    8   34 1
    25    8   35 1
    26    9   10 1
    27    9   12 1
    28    9   19 1
    29   10   11 1
    30   10   36 1
    31   10   37 1
    32   11   38 1
    33   11   39 1
    34   12   16 2
    35   12   13 1
    36   13   14 2
    37   13   40 1
    38   14   15 1
    39   15   16 1
    40   15   17 1
    41   16   41 1
    42   17   18 1
    43   17   42 1
    44   17   43 1
    45   18   44 1
    46   18   45 1
    47   18   46 1
    48   19   47 1
    49   19   48 1
    50   19   49 1
@<TRIPOS>MOLECULE
ZINC50541559
   49    50     0     0     0
SMALL
USER_CHARGES

@<TRIPOS>ATOM
      1 C1         -2.2141    2.6523   -1.4988 C.3       1 <0>        -0.1700
      2 C2         -1.7319    1.2349   -1.1836 C.3       1 <0>         0.1220
      3 N1         -2.8882    0.3483   -1.0317 N.pl3     1 <0>        -0.3534
      4 C3         -3.1011   -0.8012   -1.7058 C.2       1 <0>         0.0427
      5 C4         -4.2761   -1.3185   -1.2782 C.2       1 <0>        -0.2783
      6 C5         -4.7992   -0.4555   -0.3097 C.2       1 <0>         0.0605
      7 N2         -3.9651    0.5408   -0.1568 N.2       1 <0>        -0.2702
      8 C6         -4.9097   -2.5978   -1.7609 C.3       1 <0>        -0.0555
      9 C7         -4.4232   -3.7736   -0.8887 C.3       1 <0>         0.0785
     10 C8         -4.8231   -3.4901    0.5517 C.3       1 <0>        -0.1241
     11 C9         -4.7080   -4.6826    1.4850 C.3       1 <0>        -0.1052
     12 H1         -5.2707   -4.4353    2.4094 H         1 <0>         0.0900
     13 C10        -5.3461   -5.9360    0.8964 C.3       1 <0>        -0.1226
     14 C11        -4.7759   -6.2263   -0.4905 C.3       1 <0>        -0.1289
     15 C12        -5.0776   -5.0484   -1.4146 C.3       1 <0>        -0.0942
     16 H2         -6.1595   -4.9023   -1.4699 H         1 <0>         0.1205
     17 C13        -4.5451   -5.3533   -2.8179 C.3       1 <0>        -0.1148
     18 C14        -3.1724   -6.0203   -2.7088 C.3       1 <0>        -0.1736
     19 C15        -5.5135   -6.2942   -3.5376 C.3       1 <0>        -0.1510
     20 C16        -3.2647   -4.9495    1.9008 C.3       1 <0>        -0.1513
     21 N3         -2.9645   -3.8587   -1.0318 N.4       1 <0>        -0.6361
     22 H3         -1.3538    3.3121   -1.6118 H         1 <0>         0.0837
     23 H4         -2.7889    2.6430   -2.4249 H         1 <0>         0.0629
     24 H5         -2.8430    3.0117   -0.6844 H         1 <0>         0.0742
     25 H6         -1.1029    0.8755   -1.9980 H         1 <0>         0.1009
     26 H7         -1.1571    1.2443   -0.2575 H         1 <0>         0.0935
     27 H8         -2.4504   -1.2312   -2.4529 H         1 <0>         0.1727
     28 H9         -5.7286   -0.5909    0.2234 H         1 <0>         0.1875
     29 H10        -5.9942   -2.5161   -1.6885 H         1 <0>         0.1170
     30 H11        -4.6272   -2.7741   -2.7988 H         1 <0>         0.0945
     31 H12        -4.1964   -2.6733    0.9379 H         1 <0>         0.0877
     32 H13        -5.8608   -3.1263    0.5647 H         1 <0>         0.1099
     33 H14        -5.1502   -6.7872    1.5528 H         1 <0>         0.0780
     34 H15        -6.4267   -5.7935    0.8201 H         1 <0>         0.0759
     35 H16        -3.7050   -6.3996   -0.4338 H         1 <0>         0.0650
     36 H17        -5.2549   -7.1257   -0.8915 H         1 <0>         0.0887
     37 H18        -4.4541   -4.4249   -3.3817 H         1 <0>         0.0841
     38 H19        -2.7620   -6.1724   -3.7071 H         1 <0>         0.0808
     39 H20        -2.5025   -5.3808   -2.1341 H         1 <0>         0.0260
     40 H21        -3.2750   -6.9828   -2.2076 H         1 <0>         0.0831
     41 H22        -6.4654   -5.7865   -3.6928 H         1 <0>         0.0654
     42 H23        -5.0930   -6.5805   -4.5016 H         1 <0>         0.0663
     43 H24        -5.6720   -7.1859   -2.9310 H         1 <0>         0.0643
     44 H25        -2.8943   -4.1089    2.4875 H         1 <0>         0.0675
     45 H26        -3.2217   -5.8584    2.5008 H         1 <0>         0.0769
     46 H27        -2.6470   -5.0719    1.0111 H         1 <0>         0.0271
     47 H28        -2.5334   -3.0854   -0.5477 H         1 <0>         0.4237
     48 H29        -2.6379   -4.7274   -0.6361 H         1 <0>         0.4280
     49 H30        -2.7198   -3.8216   -2.0100 H         1 <0>         0.4297
@<TRIPOS>BOND
     1    1    2 1
     2    1   22 1
     3    1   23 1
     4    1   24 1
     5    2    3 1
     6    2   25 1
     7    2   26 1
     8    3    7 1
     9    3    4 1
    10    4    5 2
    11    4   27 1
    12    5    6 1
    13    5    8 1
    14    6    7 2
    15    6   28 1
    16    8    9 1
    17    8   29 1
    18    8   30 1
    19    9   15 1
    20    9   10 1
    21    9   21 1
    22   10   11 1
    23   10   31 1
    24   10   32 1
    25   11   12 1
    26   11   13 1
    27   11   20 1
    28   13   14 1
    29   13   33 1
    30   13   34 1
    31   14   15 1
    32   14   35 1
    33   14   36 1
    34   15   16 1
    35   15   17 1
    36   17   18 1
    37   17   19 1
    38   17   37 1
    39   18   38 1
    40   18   39 1
    41   18   40 1
    42   19   41 1
    43   19   42 1
    44   19   43 1
    45   20   44 1
    46   20   45 1
    47   20   46 1
    48   21   47 1
    49   21   48 1
    50   21   49 1
@<TRIPOS>MOLECULE
ZINC54557089
   55    56     0     0     0
SMALL
USER_CHARGES

@<TRIPOS>ATOM
      1 C1         -2.8554   -1.2040   -3.2835 C.3       1 <0>        -0.1671
      2 C2         -1.3994   -0.8322   -2.9961 C.3       1 <0>        -0.1801
      3 C3         -1.1914   -0.7159   -1.4848 C.3       1 <0>         0.0126
      4 H1         -0.2353   -0.2322   -1.2851 H         1 <0>         0.0508
      5 C4         -1.1982   -2.1130   -0.8588 C.3       1 <0>         0.0655
      6 O1         -1.0788   -1.9942    0.5614 O.3       1 <0>        -0.3689
      7 C5         -2.1214   -1.2229    1.1643 C.3       1 <0>         0.0856
      8 H2         -1.9500   -1.1562    2.2387 H         1 <0>         0.1160
      9 C6         -2.1239    0.1833    0.5588 C.3       1 <0>         0.0125
     10 N1         -2.2776    0.0837   -0.8999 N.3       1 <0>        -0.5056
     11 C7         -2.3410    1.4160   -1.5156 C.3       1 <0>         0.1008
     12 C8         -3.1915    2.3412   -0.6430 C.3       1 <0>        -0.1137
     13 C9         -3.2575    3.7288   -1.2842 C.3       1 <0>        -0.1234
     14 C10        -3.8863    3.6187   -2.6747 C.3       1 <0>        -0.0843
     15 C11        -3.0357    2.6935   -3.5473 C.3       1 <0>        -0.1298
     16 C12        -2.9698    1.3059   -2.9060 C.3       1 <0>        -0.1626
     17 C13        -3.9522    5.0062   -3.3159 C.3       1 <0>        -0.0908
     18 C14        -4.5811    4.8961   -4.7063 C.3       1 <0>        -0.1540
     19 C15        -4.8028    5.9314   -2.4433 C.3       1 <0>        -0.1549
     20 C16        -0.9275    1.9885   -1.6390 C.3       1 <0>        -0.0489
     21 N2         -0.1949    1.2629   -2.6854 N.4       1 <0>        -0.6689
     22 C17        -3.4707   -1.8951    0.9029 C.3       1 <0>        -0.1805
     23 H3         -3.0984   -0.9503   -4.3153 H         1 <0>         0.0671
     24 H4         -2.9941   -2.2743   -3.1302 H         1 <0>         0.0664
     25 H5         -3.5110   -0.6525   -2.6096 H         1 <0>         0.1008
     26 H6         -0.7416   -1.6044   -3.3950 H         1 <0>         0.1017
     27 H7         -1.1680    0.1222   -3.4692 H         1 <0>         0.0681
     28 H8         -2.1327   -2.6174   -1.1045 H         1 <0>         0.0815
     29 H9         -0.3592   -2.6901   -1.2476 H         1 <0>         0.1073
     30 H10        -2.9528    0.7568    0.9738 H         1 <0>         0.1097
     31 H11        -1.1829    0.6816    0.7918 H         1 <0>         0.0492
     32 H12        -4.1985    1.9333   -0.5551 H         1 <0>         0.0950
     33 H13        -2.7435    2.4196    0.3476 H         1 <0>         0.0788
     34 H14        -3.8634    4.3879   -0.6626 H         1 <0>         0.0849
     35 H15        -2.2505    4.1366   -1.3721 H         1 <0>         0.0614
     36 H16        -4.8933    3.2108   -2.5867 H         1 <0>         0.0818
     37 H17        -3.4837    2.6150   -4.5378 H         1 <0>         0.0865
     38 H18        -2.0287    3.1013   -3.6352 H         1 <0>         0.0506
     39 H19        -2.3638    0.6468   -3.5277 H         1 <0>         0.0958
     40 H20        -3.9768    0.8981   -2.8181 H         1 <0>         0.1078
     41 H21        -2.9453    5.4141   -3.4038 H         1 <0>         0.0667
     42 H22        -5.5881    4.4883   -4.6184 H         1 <0>         0.0579
     43 H23        -4.6281    5.8847   -5.1632 H         1 <0>         0.0586
     44 H24        -3.9751    4.2370   -5.3280 H         1 <0>         0.0548
     45 H25        -5.8098    5.5236   -2.3554 H         1 <0>         0.0577
     46 H26        -4.3548    6.0099   -1.4527 H         1 <0>         0.0572
     47 H27        -4.8498    6.9200   -2.9001 H         1 <0>         0.0585
     48 H28        -0.9849    3.0448   -1.9016 H         1 <0>         0.1467
     49 H29        -0.4066    1.8784   -0.6879 H         1 <0>         0.1315
     50 H30        -0.2004    0.2757   -2.4769 H         1 <0>         0.4453
     51 H31        -0.6388    1.4207   -3.5777 H         1 <0>         0.4312
     52 H32        -3.4663   -2.8974    1.3314 H         1 <0>         0.0662
     53 H33        -4.2648   -1.3068    1.3626 H         1 <0>         0.0704
     54 H34        -3.6421   -1.9601   -0.1716 H         1 <0>         0.0711
     55 H35         0.7576    1.5940   -2.7203 H         1 <0>         0.4218
@<TRIPOS>BOND
     1    1    2 1
     2    1   23 1
     3    1   24 1
     4    1   25 1
     5    2    3 1
     6    2   26 1
     7    2   27 1
     8    3    4 1
     9    3   10 1
    10    3    5 1
    11    5    6 1
    12    5   28 1
    13    5   29 1
    14    6    7 1
    15    7    8 1
    16    7    9 1
    17    7   22 1
    18    9   10 1
    19    9   30 1
    20    9   31 1
    21   10   11 1
    22   11   16 1
    23   11   12 1
    24   11   20 1
    25   12   13 1
    26   12   32 1
    27   12   33 1
    28   13   14 1
    29   13   34 1
    30   13   35 1
    31   14   15 1
    32   14   17 1
    33   14   36 1
    34   15   16 1
    35   15   37 1
    36   15   38 1
    37   16   39 1
    38   16   40 1
    39   17   18 1
    40   17   19 1
    41   17   41 1
    42   18   42 1
    43   18   43 1
    44   18   44 1
    45   19   45 1
    46   19   46 1
    47   19   47 1
    48   20   21 1
    49   20   48 1
    50   20   49 1
    51   21   50 1
    52   21   51 1
    53   21   55 1
    54   22   52 1
    55   22   53 1
    56   22   54 1
@<TRIPOS>MOLECULE
ZINC43899994
   55    56     0     0     0
SMALL
USER_CHARGES

@<TRIPOS>ATOM
      1 C1         -2.5115    1.4891    0.3088 C.3       1 <0>        -0.1967
      2 C2         -1.8681    0.1556    0.6942 C.3       1 <0>        -0.0275
      3 N1         -1.7681   -0.7015   -0.4947 N.4       1 <0>        -0.5237
      4 C3         -1.2774   -2.0291   -0.1014 C.3       1 <0>         0.0064
      5 H1         -0.6176   -1.9318    0.7608 H         1 <0>         0.1659
      6 C4         -2.4637   -2.9241    0.2626 C.3       1 <0>        -0.0420
      7 N2         -3.1616   -2.3626    1.4269 N.4       1 <0>        -0.3983
      8 C5         -2.2848   -2.4336    2.6016 C.3       1 <0>        -0.0312
      9 C6         -2.9754   -1.7825    3.8020 C.3       1 <0>        -0.1427
     10 C7         -4.2821   -2.5293    4.0941 C.3       1 <0>        -0.1006
     11 H2         -4.8055   -2.0440    4.9180 H         1 <0>         0.1115
     12 C8         -3.9558   -3.9760    4.4722 C.3       1 <0>        -0.1218
     13 C9         -5.2531   -4.7446    4.7289 C.3       1 <0>        -0.1301
     14 C10        -6.1083   -4.7363    3.4600 C.3       1 <0>        -0.1277
     15 C11        -6.4417   -3.2916    3.0831 C.3       1 <0>        -0.1165
     16 C12        -5.1576   -2.4993    2.8387 C.3       1 <0>        -0.0971
     17 H3         -5.3993   -1.4656    2.5912 H         1 <0>         0.0936
     18 C13        -4.3912   -3.1261    1.6731 C.3       1 <0>        -0.0176
     19 C14        -0.5060   -2.6533   -1.2660 C.3       1 <0>        -0.0743
     20 C15         0.7469   -1.8228   -1.5512 C.3       1 <0>        -0.1667
     21 C16        -0.0985   -4.0820   -0.9003 C.3       1 <0>        -0.1584
     22 C17        -1.3950   -2.6793   -2.5109 C.3       1 <0>        -0.1777
     23 H4         -2.5857    2.1251    1.1909 H         1 <0>         0.1215
     24 H5         -1.8991    1.9836   -0.4452 H         1 <0>         0.0978
     25 H6         -3.5082    1.3087   -0.0939 H         1 <0>         0.0875
     26 H7         -0.8714    0.3360    1.0968 H         1 <0>         0.1558
     27 H8         -2.4805   -0.3389    1.4481 H         1 <0>         0.1033
     28 H9         -2.6779   -0.7921   -0.9214 H         1 <0>         0.4278
     29 H10        -3.1508   -2.9779   -0.5818 H         1 <0>         0.1603
     30 H11        -2.1038   -3.9247    0.5025 H         1 <0>         0.1819
     31 H12        -2.0684   -3.4773    2.8299 H         1 <0>         0.1495
     32 H13        -1.3530   -1.9088    2.3908 H         1 <0>         0.1262
     33 H14        -2.3218   -1.8374    4.6725 H         1 <0>         0.1253
     34 H15        -3.1948   -0.7393    3.5747 H         1 <0>         0.0883
     35 H16        -3.4087   -4.4496    3.6571 H         1 <0>         0.0551
     36 H17        -3.3435   -3.9862    5.3739 H         1 <0>         0.0822
     37 H18        -5.0182   -5.7732    5.0023 H         1 <0>         0.0768
     38 H19        -5.8030   -4.2688    5.5410 H         1 <0>         0.0758
     39 H20        -5.5562   -5.2063    2.6462 H         1 <0>         0.0592
     40 H21        -7.0313   -5.2876    3.6398 H         1 <0>         0.0823
     41 H22        -7.0505   -3.2838    2.1790 H         1 <0>         0.0785
     42 H23        -6.9955   -2.8230    3.8967 H         1 <0>         0.0898
     43 H24        -5.0139   -3.1100    0.7786 H         1 <0>         0.1380
     44 H25        -4.1356   -4.1568    1.9190 H         1 <0>         0.1455
     45 H26         1.3824   -1.8081   -0.6658 H         1 <0>         0.0808
     46 H27         1.2941   -2.2650   -2.3838 H         1 <0>         0.1001
     47 H28         0.4569   -0.8038   -1.8074 H         1 <0>         0.0571
     48 H29        -0.9912   -4.6737   -0.6971 H         1 <0>         0.0686
     49 H30         0.4510   -4.5267   -1.7300 H         1 <0>         0.0954
     50 H31         0.5348   -4.0635   -0.0134 H         1 <0>         0.0771
     51 H32        -1.6853   -1.6615   -2.7714 H         1 <0>         0.0587
     52 H33        -0.8455   -3.1240   -3.3406 H         1 <0>         0.1021
     53 H34        -2.2876   -3.2710   -2.3076 H         1 <0>         0.0738
     54 H35        -3.3967   -1.3986    1.2438 H         1 <0>         0.4038
     55 H36        -1.1268   -0.2878   -1.1546 H         1 <0>         0.4475
@<TRIPOS>BOND
     1    1    2 1
     2    1   23 1
     3    1   24 1
     4    1   25 1
     5    2    3 1
     6    2   26 1
     7    2   27 1
     8    3    4 1
     9    3   28 1
    10    3   55 1
    11    4    5 1
    12    4    6 1
    13    4   19 1
    14    6    7 1
    15    6   29 1
    16    6   30 1
    17    7   18 1
    18    7    8 1
    19    7   54 1
    20    8    9 1
    21    8   31 1
    22    8   32 1
    23    9   10 1
    24    9   33 1
    25    9   34 1
    26   10   11 1
    27   10   16 1
    28   10   12 1
    29   12   13 1
    30   12   35 1
    31   12   36 1
    32   13   14 1
    33   13   37 1
    34   13   38 1
    35   14   15 1
    36   14   39 1
    37   14   40 1
    38   15   16 1
    39   15   41 1
    40   15   42 1
    41   16   17 1
    42   16   18 1
    43   18   43 1
    44   18   44 1
    45   19   20 1
    46   19   21 1
    47   19   22 1
    48   20   45 1
    49   20   46 1
    50   20   47 1
    51   21   48 1
    52   21   49 1
    53   21   50 1
    54   22   51 1
    55   22   52 1
    56   22   53 1
@<TRIPOS>MOLECULE
ZINC51252354
   55    56     0     0     0
SMALL
USER_CHARGES

@<TRIPOS>ATOM
      1 C1         -0.1673    0.8980   -0.3664 C.3       1 <0>        -0.1829
      2 C2         -0.2817   -0.5725    0.0404 C.3       1 <0>        -0.1516
      3 C3         -1.7531   -0.9917    0.0294 C.3       1 <0>        -0.1081
      4 C4         -1.8674   -2.4622    0.4362 C.3       1 <0>        -0.1980
      5 C5         -2.3259   -0.8056   -1.3770 C.3       1 <0>        -0.0019
      6 N1         -1.5730   -1.6363   -2.3263 N.4       1 <0>        -0.5117
      7 C6         -2.1231   -1.4576   -3.6766 C.3       1 <0>        -0.0113
      8 C7         -1.3389   -2.3228   -4.6653 C.3       1 <0>        -0.1933
      9 C8         -2.5372   -0.1266    1.0181 C.3       1 <0>        -0.0265
     10 N2         -1.8972   -0.1899    2.3389 N.4       1 <0>        -0.3846
     11 C9         -2.0343   -1.5535    2.8934 C.3       1 <0>        -0.0246
     12 C10        -2.2330   -1.3436    4.4152 C.3       1 <0>        -0.1466
     13 C11        -3.1045   -0.0604    4.4434 C.3       1 <0>        -0.1374
     14 C12        -2.5565    0.7582    3.2556 C.3       1 <0>         0.0269
     15 H1         -1.8339    1.4919    3.6130 H         1 <0>         0.1443
     16 C13        -3.7069    1.4643    2.5353 C.3       1 <0>        -0.1151
     17 C14        -3.1551    2.5855    1.6307 C.3       1 <0>        -0.1394
     18 C15        -4.2028    3.7200    1.7499 C.3       1 <0>        -0.1258
     19 C16        -4.6123    3.6516    3.2421 C.3       1 <0>        -0.1314
     20 C17        -4.6334    2.1422    3.5598 C.3       1 <0>        -0.1207
     21 H2          0.8810    1.1966   -0.3586 H         1 <0>         0.0902
     22 H3         -0.5754    1.0306   -1.3684 H         1 <0>         0.0677
     23 H4         -0.7259    1.5143    0.3379 H         1 <0>         0.0651
     24 H5          0.2770   -1.1889   -0.6640 H         1 <0>         0.0905
     25 H6          0.1265   -0.7051    1.0424 H         1 <0>         0.0868
     26 H7         -1.2400   -2.6479    1.3080 H         1 <0>         0.0985
     27 H8         -2.9047   -2.6923    0.6796 H         1 <0>         0.0932
     28 H9         -1.5391   -3.0941   -0.3890 H         1 <0>         0.0724
     29 H10        -3.3742   -1.1043   -1.3848 H         1 <0>         0.1463
     30 H11        -2.2445    0.2420   -1.6668 H         1 <0>         0.1458
     31 H12        -0.6027   -1.3598   -2.3191 H         1 <0>         0.4277
     32 H13        -3.1713   -1.7563   -3.6844 H         1 <0>         0.1362
     33 H14        -2.0416   -0.4100   -3.9665 H         1 <0>         0.1354
     34 H15        -1.4204   -3.3704   -4.3755 H         1 <0>         0.0831
     35 H16        -1.7470   -2.1902   -5.6673 H         1 <0>         0.1146
     36 H17        -0.2906   -2.0241   -4.6575 H         1 <0>         0.0830
     37 H18        -2.5478    0.9058    0.6686 H         1 <0>         0.1590
     38 H19        -3.5602   -0.4957    1.0920 H         1 <0>         0.1450
     39 H20        -2.9023   -2.0528    2.4627 H         1 <0>         0.1375
     40 H21        -1.1302   -2.1324    2.7050 H         1 <0>         0.1397
     41 H22        -2.7635   -2.1858    4.8596 H         1 <0>         0.1221
     42 H23        -1.2783   -1.1782    4.9145 H         1 <0>         0.1020
     43 H24        -4.1557   -0.3050    4.2905 H         1 <0>         0.1045
     44 H25        -2.9657    0.4793    5.3802 H         1 <0>         0.1186
     45 H26        -4.2707    0.7464    1.9396 H         1 <0>         0.0974
     46 H27        -2.1838    2.9237    1.9918 H         1 <0>         0.0797
     47 H28        -3.0809    2.2415    0.5990 H         1 <0>         0.0727
     48 H29        -3.7547    4.6858    1.5162 H         1 <0>         0.0803
     49 H30        -5.0594    3.5241    1.1049 H         1 <0>         0.0760
     50 H31        -3.8764    4.1620    3.8634 H         1 <0>         0.0741
     51 H32        -5.6017    4.0857    3.3865 H         1 <0>         0.0805
     52 H33        -5.6471    1.7539    3.4608 H         1 <0>         0.0823
     53 H34        -4.2635    1.9681    4.5703 H         1 <0>         0.0802
     54 H35        -0.9192    0.0436    2.2546 H         1 <0>         0.4231
     55 H36        -1.6485   -2.6060   -2.0580 H         1 <0>         0.4282
@<TRIPOS>BOND
     1    1    2 1
     2    1   21 1
     3    1   22 1
     4    1   23 1
     5    2    3 1
     6    2   24 1
     7    2   25 1
     8    3    4 1
     9    3    5 1
    10    3    9 1
    11    4   26 1
    12    4   27 1
    13    4   28 1
    14    5    6 1
    15    5   29 1
    16    5   30 1
    17    6    7 1
    18    6   31 1
    19    6   55 1
    20    7    8 1
    21    7   32 1
    22    7   33 1
    23    8   34 1
    24    8   35 1
    25    8   36 1
    26    9   10 1
    27    9   37 1
    28    9   38 1
    29   10   14 1
    30   10   11 1
    31   10   54 1
    32   11   12 1
    33   11   39 1
    34   11   40 1
    35   12   13 1
    36   12   41 1
    37   12   42 1
    38   13   14 1
    39   13   43 1
    40   13   44 1
    41   14   15 1
    42   14   16 1
    43   16   20 1
    44   16   17 1
    45   16   45 1
    46   17   18 1
    47   17   46 1
    48   17   47 1
    49   18   19 1
    50   18   48 1
    51   18   49 1
    52   19   20 1
    53   19   50 1
    54   19   51 1
    55   20   52 1
    56   20   53 1
@<TRIPOS>MOLECULE
ZINC53858368
   55    56     0     0     0
SMALL
USER_CHARGES

@<TRIPOS>ATOM
      1 C1         -1.9694   -0.3202    0.4768 C.3       1 <0>        -0.1921
      2 C2         -1.3861   -1.6711    0.0575 C.3       1 <0>        -0.0162
      3 N1         -0.3547   -1.4621   -0.9676 N.4       1 <0>        -0.5150
      4 C3          0.2054   -2.7590   -1.3702 C.3       1 <0>         0.0387
      5 H1         -0.6004   -3.4185   -1.6925 H         1 <0>         0.1509
      6 C4          0.9364   -3.3895   -0.1831 C.3       1 <0>        -0.1461
      7 C5          2.0675   -2.4639    0.2693 C.3       1 <0>        -0.1404
      8 C6          3.0509   -2.2585   -0.8846 C.3       1 <0>        -0.1329
      9 C7          2.3199   -1.6281   -2.0716 C.3       1 <0>        -0.1470
     10 C8          1.1889   -2.5537   -2.5241 C.3       1 <0>        -0.1339
     11 H2          1.6045   -3.5161   -2.8229 H         1 <0>         0.1380
     12 C9          0.4579   -1.9233   -3.7112 C.3       1 <0>        -0.0376
     13 N2          1.0480   -2.4112   -4.9648 N.4       1 <0>        -0.3816
     14 C10         2.4390   -1.9494   -5.0635 C.3       1 <0>        -0.0725
     15 C11         0.2779   -1.8922   -6.1031 C.3       1 <0>         0.0360
     16 C12        -1.1613   -2.4413   -6.0243 C.3       1 <0>        -0.1363
     17 C13        -2.0582   -1.5498   -6.8399 C.3       1 <0>        -0.1204
     18 C14        -2.2469   -2.0627   -8.2804 C.3       1 <0>        -0.1279
     19 C15        -0.9389   -2.5853   -8.9046 C.3       1 <0>        -0.1310
     20 C16         0.2415   -1.7075   -8.5875 C.3       1 <0>        -0.1069
     21 C17         0.9492   -2.2702   -7.3378 C.3       1 <0>        -0.1645
     22 H3         -1.1763    0.3080    0.8822 H         1 <0>         0.0829
     23 H4         -2.4129    0.1690   -0.3904 H         1 <0>         0.0815
     24 H5         -2.7347   -0.4753    1.2374 H         1 <0>         0.1149
     25 H6         -0.9425   -2.1603    0.9247 H         1 <0>         0.1385
     26 H7         -2.1792   -2.2993   -0.3480 H         1 <0>         0.1362
     27 H8         -0.7653   -1.0092   -1.7703 H         1 <0>         0.4191
     28 H9          0.2357   -3.5358    0.6389 H         1 <0>         0.1020
     29 H10         1.3520   -4.3519   -0.4819 H         1 <0>         0.1178
     30 H11         1.6518   -1.5015    0.5681 H         1 <0>         0.0616
     31 H12         2.5882   -2.9130    1.1150 H         1 <0>         0.1029
     32 H13         3.8567   -1.5991   -0.5623 H         1 <0>         0.0929
     33 H14         3.4665   -3.2209   -1.1834 H         1 <0>         0.0849
     34 H15         1.9043   -0.6657   -1.7729 H         1 <0>         0.0735
     35 H16         3.0206   -1.4818   -2.8937 H         1 <0>         0.1007
     36 H17        -0.5966   -2.1968   -3.6753 H         1 <0>         0.1392
     37 H18         0.5538   -0.8386   -3.6624 H         1 <0>         0.1392
     38 H19         3.0349   -2.4217   -4.2824 H         1 <0>         0.1303
     39 H20         2.8423   -2.2172   -6.0401 H         1 <0>         0.1400
     40 H21         2.4721   -0.8668   -4.9412 H         1 <0>         0.1279
     41 H22         0.2433   -0.8046   -6.0388 H         1 <0>         0.1361
     42 H23        -1.1891   -3.4544   -6.4255 H         1 <0>         0.0996
     43 H24        -1.4951   -2.4460   -4.9867 H         1 <0>         0.0779
     44 H25        -3.0329   -1.4921   -6.3555 H         1 <0>         0.0808
     45 H26        -1.6244   -0.5505   -6.8753 H         1 <0>         0.0699
     46 H27        -2.9798   -2.8694   -8.2731 H         1 <0>         0.0709
     47 H28        -2.6295   -1.2486   -8.8960 H         1 <0>         0.0744
     48 H29        -0.7439   -3.5887   -8.5262 H         1 <0>         0.0631
     49 H30        -1.0601   -2.6359   -9.9866 H         1 <0>         0.0775
     50 H31         0.9330   -1.7055   -9.4301 H         1 <0>         0.0885
     51 H32        -0.1005   -0.6919   -8.3885 H         1 <0>         0.0775
     52 H33         1.9723   -1.8951   -7.3126 H         1 <0>         0.0919
     53 H34         0.9755   -3.3577   -7.4067 H         1 <0>         0.0890
     54 H35         0.3795   -0.8806   -0.5923 H         1 <0>         0.4283
     55 H36         1.0268   -3.4199   -4.9763 H         1 <0>         0.4273
@<TRIPOS>BOND
     1    1    2 1
     2    1   22 1
     3    1   23 1
     4    1   24 1
     5    2    3 1
     6    2   25 1
     7    2   26 1
     8    3    4 1
     9    3   27 1
    10    3   54 1
    11    4    5 1
    12    4   10 1
    13    4    6 1
    14    6    7 1
    15    6   28 1
    16    6   29 1
    17    7    8 1
    18    7   30 1
    19    7   31 1
    20    8    9 1
    21    8   32 1
    22    8   33 1
    23    9   10 1
    24    9   34 1
    25    9   35 1
    26   10   11 1
    27   10   12 1
    28   12   13 1
    29   12   36 1
    30   12   37 1
    31   13   14 1
    32   13   15 1
    33   13   55 1
    34   14   38 1
    35   14   39 1
    36   14   40 1
    37   15   21 1
    38   15   16 1
    39   15   41 1
    40   16   17 1
    41   16   42 1
    42   16   43 1
    43   17   18 1
    44   17   44 1
    45   17   45 1
    46   18   19 1
    47   18   46 1
    48   18   47 1
    49   19   20 1
    50   19   48 1
    51   19   49 1
    52   20   21 1
    53   20   50 1
    54   20   51 1
    55   21   52 1
    56   21   53 1
@<TRIPOS>MOLECULE
ZINC53873336
   53    55     0     0     0
SMALL
USER_CHARGES

@<TRIPOS>ATOM
      1 C1         -0.3667    1.4414   -1.3088 C.3       1 <0>        -0.1928
      2 C2         -0.3461   -0.0877   -1.2595 C.3       1 <0>        -0.0156
      3 N1         -1.6748   -0.5832   -0.8762 N.4       1 <0>        -0.5175
      4 C3         -1.6550   -2.0513   -0.8289 C.3       1 <0>         0.0333
      5 H1         -0.8511   -2.3928   -0.1768 H         1 <0>         0.1604
      6 C4         -1.4627   -2.6232   -2.2487 C.3       1 <0>        -0.1453
      7 C5         -2.3510   -3.8919   -2.2707 C.3       1 <0>        -0.1228
      8 C6         -3.5903   -3.4557   -1.4503 C.3       1 <0>        -0.1457
      9 C7         -3.0073   -2.5806   -0.3201 C.3       1 <0>        -0.1358
     10 H2         -2.8596   -3.1796    0.5785 H         1 <0>         0.1337
     11 C8         -3.9491   -1.4120   -0.0228 C.3       1 <0>        -0.0547
     12 N2         -5.1669   -1.9172    0.6252 N.4       1 <0>        -0.3774
     13 C9         -5.9404   -2.7319   -0.3359 C.3       1 <0>        -0.0228
     14 C10        -7.4237   -2.4323   -0.0046 C.3       1 <0>        -0.1452
     15 C11        -7.3668   -0.9231    0.3504 C.3       1 <0>        -0.1379
     16 C12        -6.0038   -0.7842    1.0606 C.3       1 <0>         0.0242
     17 H3         -6.1433   -0.8199    2.1410 H         1 <0>         0.1487
     18 C13        -5.3412    0.5359    0.6616 C.3       1 <0>        -0.1171
     19 C14        -4.2279    0.8936    1.6677 C.3       1 <0>        -0.1359
     20 C15        -4.3177    2.4341    1.8018 C.3       1 <0>        -0.1271
     21 C16        -5.8442    2.6927    1.7566 C.3       1 <0>        -0.1316
     22 C17        -6.3689    1.6798    0.7181 C.3       1 <0>        -0.1213
     23 H4          0.6192    1.8091   -1.5932 H         1 <0>         0.1163
     24 H5         -1.1029    1.7714   -2.0417 H         1 <0>         0.0823
     25 H6         -0.6311    1.8330   -0.3266 H         1 <0>         0.0813
     26 H7         -0.0817   -0.4793   -2.2418 H         1 <0>         0.1393
     27 H8          0.3901   -0.4177   -0.5266 H         1 <0>         0.1388
     28 H9         -1.9195   -0.2207    0.0330 H         1 <0>         0.4182
     29 H10        -1.8015   -1.9073   -2.9975 H         1 <0>         0.0942
     30 H11        -0.4181   -2.8860   -2.4159 H         1 <0>         0.1119
     31 H12        -2.6341   -4.1476   -3.2917 H         1 <0>         0.1012
     32 H13        -1.8432   -4.7274   -1.7887 H         1 <0>         0.0935
     33 H14        -4.2727   -2.8742   -2.0702 H         1 <0>         0.0889
     34 H15        -4.0984   -4.3260   -1.0349 H         1 <0>         0.1006
     35 H16        -3.4517   -0.7041    0.6402 H         1 <0>         0.1378
     36 H17        -4.2139   -0.9126   -0.9547 H         1 <0>         0.1381
     37 H18        -5.7118   -2.4314   -1.3584 H         1 <0>         0.1368
     38 H19        -5.7264   -3.7912   -0.1940 H         1 <0>         0.1422
     39 H20        -8.0603   -2.6056   -0.8722 H         1 <0>         0.1234
     40 H21        -7.7600   -3.0217    0.8485 H         1 <0>         0.1042
     41 H22        -7.3947   -0.3135   -0.5528 H         1 <0>         0.1038
     42 H23        -8.1812   -0.6545    1.0233 H         1 <0>         0.1202
     43 H24        -4.9261    0.4563   -0.3431 H         1 <0>         0.0900
     44 H25        -4.4146    0.4155    2.6293 H         1 <0>         0.0889
     45 H26        -3.2530    0.6009    1.2779 H         1 <0>         0.0529
     46 H27        -3.8980    2.7643    2.7521 H         1 <0>         0.0840
     47 H28        -3.8180    2.9244    0.9664 H         1 <0>         0.0751
     48 H29        -6.2920    2.5050    2.7326 H         1 <0>         0.0770
     49 H30        -6.0489    3.7128    1.4318 H         1 <0>         0.0829
     50 H31        -6.4519    2.1558   -0.2589 H         1 <0>         0.0836
     51 H32        -7.3397    1.2944    1.0298 H         1 <0>         0.0840
     52 H33        -2.3563   -0.2777   -1.5547 H         1 <0>         0.4234
     53 H34        -4.9183   -2.4822    1.4233 H         1 <0>         0.4316
@<TRIPOS>BOND
     1    1    2 1
     2    1   23 1
     3    1   24 1
     4    1   25 1
     5    2    3 1
     6    2   26 1
     7    2   27 1
     8    3    4 1
     9    3   28 1
    10    3   52 1
    11    4    5 1
    12    4    9 1
    13    4    6 1
    14    6    7 1
    15    6   29 1
    16    6   30 1
    17    7    8 1
    18    7   31 1
    19    7   32 1
    20    8    9 1
    21    8   33 1
    22    8   34 1
    23    9   10 1
    24    9   11 1
    25   11   12 1
    26   11   35 1
    27   11   36 1
    28   12   16 1
    29   12   13 1
    30   12   53 1
    31   13   14 1
    32   13   37 1
    33   13   38 1
    34   14   15 1
    35   14   39 1
    36   14   40 1
    37   15   16 1
    38   15   41 1
    39   15   42 1
    40   16   17 1
    41   16   18 1
    42   18   22 1
    43   18   19 1
    44   18   43 1
    45   19   20 1
    46   19   44 1
    47   19   45 1
    48   20   21 1
    49   20   46 1
    50   20   47 1
    51   21   22 1
    52   21   48 1
    53   21   49 1
    54   22   50 1
    55   22   51 1
@<TRIPOS>MOLECULE
ZINC61819419
   55    56     0     0     0
SMALL
USER_CHARGES

@<TRIPOS>ATOM
      1 C1         -0.0187    1.5258    0.0104 C.3       1 <0>        -0.1600
      2 C2          0.0021   -0.0041    0.0020 C.3       1 <0>        -0.1501
      3 C3         -1.4333   -0.5336    0.0129 C.3       1 <0>        -0.0168
      4 N1         -1.4134   -2.0025    0.0048 N.4       1 <0>        -0.5144
      5 C4         -2.7915   -2.5110    0.0152 C.3       1 <0>         0.0346
      6 H1         -3.3284   -2.0882    0.8645 H         1 <0>         0.1519
      7 C5         -3.4935   -2.1085   -1.2833 C.3       1 <0>        -0.1892
      8 C6         -2.7715   -4.0363    0.1326 C.3       1 <0>        -0.1797
      9 C7         -2.1824   -4.4359    1.4869 C.3       1 <0>        -0.0254
     10 N2         -2.1631   -5.9005    1.5995 N.4       1 <0>        -0.3798
     11 C8         -1.2528   -6.4552    0.5906 C.3       1 <0>        -0.0181
     12 C9         -1.2906   -7.9839    0.6498 C.3       1 <0>        -0.1429
     13 C10        -0.8556   -8.4456    2.0431 C.3       1 <0>        -0.0657
     14 C11         0.5923   -8.0203    2.2927 C.3       1 <0>        -0.1162
     15 C12         1.5003   -8.6610    1.2409 C.3       1 <0>        -0.1232
     16 C13         1.3915  -10.1843    1.3335 C.3       1 <0>        -0.1280
     17 C14        -0.0568  -10.6090    1.0830 C.3       1 <0>        -0.1250
     18 C15        -0.9653   -9.9683    2.1344 C.3       1 <0>        -0.1111
     19 C16        -1.7654   -7.8023    3.0927 C.3       1 <0>        -0.1395
     20 C17        -1.7102   -6.2803    2.9430 C.3       1 <0>        -0.0101
     21 H2          1.0039    1.9031    0.0027 H         1 <0>         0.0823
     22 H3         -0.5459    1.8868   -0.8726 H         1 <0>         0.0702
     23 H4         -0.5289    1.8773    0.9072 H         1 <0>         0.0692
     24 H5          0.5123   -0.3556   -0.8948 H         1 <0>         0.0881
     25 H6          0.5293   -0.3651    0.8851 H         1 <0>         0.0854
     26 H7         -1.9435   -0.1821    0.9097 H         1 <0>         0.1363
     27 H8         -1.9605   -0.1726   -0.8702 H         1 <0>         0.1397
     28 H9         -0.9411   -2.3279   -0.8254 H         1 <0>         0.4300
     29 H10        -4.5161   -2.4858   -1.2756 H         1 <0>         0.1132
     30 H11        -3.5077   -1.0218   -1.3669 H         1 <0>         0.0949
     31 H12        -2.9566   -2.5312   -2.1326 H         1 <0>         0.0882
     32 H13        -3.7883   -4.4204    0.0511 H         1 <0>         0.1382
     33 H14        -2.1601   -4.4542   -0.6672 H         1 <0>         0.1134
     34 H15        -1.1655   -4.0519    1.5683 H         1 <0>         0.1201
     35 H16        -2.7938   -4.0180    2.2866 H         1 <0>         0.1469
     36 H17        -1.5629   -6.1226   -0.4000 H         1 <0>         0.1289
     37 H18        -0.2381   -6.1094    0.7880 H         1 <0>         0.1316
     38 H19        -2.3047   -8.3310    0.4514 H         1 <0>         0.0925
     39 H20        -0.6119   -8.3941   -0.0980 H         1 <0>         0.1226
     40 H21         0.6688   -6.9351    2.2263 H         1 <0>         0.0521
     41 H22         0.9007   -8.3463    3.2861 H         1 <0>         0.0803
     42 H23         1.1924   -8.3344    0.2476 H         1 <0>         0.0609
     43 H24         2.5323   -8.3588    1.4191 H         1 <0>         0.0710
     44 H25         2.0387  -10.6409    0.5846 H         1 <0>         0.0712
     45 H26         1.6992  -10.5107    2.3270 H         1 <0>         0.0690
     46 H27        -0.3645  -10.2827    0.0896 H         1 <0>         0.0632
     47 H28        -0.1338  -11.6942    1.1490 H         1 <0>         0.0745
     48 H29        -0.6586  -10.2957    3.1278 H         1 <0>         0.0770
     49 H30        -1.9974  -10.2696    1.9550 H         1 <0>         0.0708
     50 H31        -2.7895   -8.1456    2.9463 H         1 <0>         0.0931
     51 H32        -1.4258   -8.0826    4.0898 H         1 <0>         0.1185
     52 H33        -0.6860   -5.9380    3.0910 H         1 <0>         0.1318
     53 H34        -2.3579   -5.8186    3.6883 H         1 <0>         0.1347
     54 H35        -0.9254   -2.3367    0.8222 H         1 <0>         0.4193
     55 H36        -3.0928   -6.2608    1.4449 H         1 <0>         0.4293
@<TRIPOS>BOND
     1    1    2 1
     2    1   21 1
     3    1   22 1
     4    1   23 1
     5    2    3 1
     6    2   24 1
     7    2   25 1
     8    3    4 1
     9    3   26 1
    10    3   27 1
    11    4    5 1
    12    4   28 1
    13    4   54 1
    14    5    6 1
    15    5    7 1
    16    5    8 1
    17    7   29 1
    18    7   30 1
    19    7   31 1
    20    8    9 1
    21    8   32 1
    22    8   33 1
    23    9   10 1
    24    9   34 1
    25    9   35 1
    26   10   20 1
    27   10   11 1
    28   10   55 1
    29   11   12 1
    30   11   36 1
    31   11   37 1
    32   12   13 1
    33   12   38 1
    34   12   39 1
    35   13   18 1
    36   13   14 1
    37   13   19 1
    38   14   15 1
    39   14   40 1
    40   14   41 1
    41   15   16 1
    42   15   42 1
    43   15   43 1
    44   16   17 1
    45   16   44 1
    46   16   45 1
    47   17   18 1
    48   17   46 1
    49   17   47 1
    50   18   48 1
    51   18   49 1
    52   19   20 1
    53   19   50 1
    54   19   51 1
    55   20   52 1
    56   20   53 1
@<TRIPOS>MOLECULE
ZINC36866012
   52    53     0     0     0
SMALL
USER_CHARGES

@<TRIPOS>ATOM
      1 C1         -0.3093    1.0668    0.4773 C.3       1 <0>        -0.1776
      2 C2         -0.2422   -0.4600    0.5487 C.3       1 <0>        -0.1068
      3 H1          0.1308   -0.8520   -0.3975 H         1 <0>         0.0951
      4 C3         -1.6407   -1.0199    0.8168 C.3       1 <0>        -0.1155
      5 C4         -2.1643   -0.4697    2.1450 C.3       1 <0>        -0.1365
      6 C5         -1.2225   -0.8865    3.2764 C.3       1 <0>        -0.1183
      7 C6          0.1759   -0.3266    3.0083 C.3       1 <0>        -0.1436
      8 C7          0.6995   -0.8768    1.6802 C.3       1 <0>         0.0236
      9 H2          0.7473   -1.9646    1.7311 H         1 <0>         0.1487
     10 N1          2.0422   -0.3393    1.4227 N.4       1 <0>        -0.5256
     11 C8          2.9732   -0.8376    2.4439 C.3       1 <0>        -0.0455
     12 C9          4.3312   -0.1538    2.2732 C.3       1 <0>         0.0100
     13 H3          4.2186    0.9201    2.4223 H         1 <0>         0.1638
     14 C10         5.3160   -0.7111    3.3029 C.3       1 <0>        -0.1099
     15 C11         4.7847   -0.4450    4.7128 C.3       1 <0>        -0.1628
     16 C12         5.4741   -2.2185    3.0936 C.3       1 <0>        -0.1820
     17 N2          4.8414   -0.4092    0.9195 N.4       1 <0>        -0.4083
     18 C13         4.1951    0.5087   -0.0531 C.3       1 <0>        -0.0353
     19 C14         5.1896    0.5237   -1.2411 C.3       1 <0>        -0.1400
     20 C15         6.5666    0.4790   -0.5399 C.3       1 <0>        -0.1459
     21 C16         6.2886   -0.1110    0.8551 C.3       1 <0>        -0.0116
     22 H4          0.6870    1.4657    0.2862 H         1 <0>         0.0426
     23 H5         -0.9802    1.3637   -0.3288 H         1 <0>         0.0925
     24 H6         -0.6823    1.4588    1.4235 H         1 <0>         0.0835
     25 H7         -2.3116   -0.7230    0.0107 H         1 <0>         0.0918
     26 H8         -1.5929   -2.1077    0.8677 H         1 <0>         0.0786
     27 H9         -2.2120    0.6181    2.0941 H         1 <0>         0.0755
     28 H10        -3.1605   -0.8686    2.3360 H         1 <0>         0.0862
     29 H11        -1.5955   -0.4945    4.2226 H         1 <0>         0.0913
     30 H12        -1.1748   -1.9743    3.3273 H         1 <0>         0.0779
     31 H13         0.1282    0.7611    2.9574 H         1 <0>         0.0940
     32 H14         0.8469   -0.6235    3.8144 H         1 <0>         0.0861
     33 H15         2.3539   -0.6358    0.5100 H         1 <0>         0.4142
     34 H16         2.5774   -0.6169    3.4352 H         1 <0>         0.1832
     35 H17         3.0925   -1.9153    2.3320 H         1 <0>         0.1620
     36 H18         6.2834   -0.2240    3.1813 H         1 <0>         0.1197
     37 H19         3.8172   -0.9322    4.8345 H         1 <0>         0.0666
     38 H20         5.4863   -0.8421    5.4464 H         1 <0>         0.0938
     39 H21         4.6720    0.6288    4.8620 H         1 <0>         0.0761
     40 H22         5.8526   -2.4081    2.0891 H         1 <0>         0.0583
     41 H23         6.1757   -2.6156    3.8272 H         1 <0>         0.1006
     42 H24         4.5067   -2.7057    3.2152 H         1 <0>         0.0720
     43 H25         3.2272    0.1176   -0.3666 H         1 <0>         0.1166
     44 H26         4.0886    1.5067    0.3720 H         1 <0>         0.1513
     45 H27         5.0495   -0.3537   -1.8725 H         1 <0>         0.1071
     46 H28         5.0823    1.4395   -1.8224 H         1 <0>         0.1291
     47 H29         7.2520   -0.1635   -1.0926 H         1 <0>         0.1159
     48 H30         6.9783    1.4843   -0.4503 H         1 <0>         0.1133
     49 H31         6.5527    0.6145    1.6245 H         1 <0>         0.1426
     50 H32         6.8629   -1.0272    0.9920 H         1 <0>         0.1442
     51 H33         2.0132    0.6687    1.4572 H         1 <0>         0.4294
     52 H34         4.6720   -1.3692    0.6588 H         1 <0>         0.4280
@<TRIPOS>BOND
     1    1    2 1
     2    1   22 1
     3    1   23 1
     4    1   24 1
     5    2    3 1
     6    2    8 1
     7    2    4 1
     8    4    5 1
     9    4   25 1
    10    4   26 1
    11    5    6 1
    12    5   27 1
    13    5   28 1
    14    6    7 1
    15    6   29 1
    16    6   30 1
    17    7    8 1
    18    7   31 1
    19    7   32 1
    20    8    9 1
    21    8   10 1
    22   10   11 1
    23   10   33 1
    24   10   51 1
    25   11   12 1
    26   11   34 1
    27   11   35 1
    28   12   13 1
    29   12   14 1
    30   12   17 1
    31   14   15 1
    32   14   16 1
    33   14   36 1
    34   15   37 1
    35   15   38 1
    36   15   39 1
    37   16   40 1
    38   16   41 1
    39   16   42 1
    40   17   21 1
    41   17   18 1
    42   17   52 1
    43   18   19 1
    44   18   43 1
    45   18   44 1
    46   19   20 1
    47   19   45 1
    48   19   46 1
    49   20   21 1
    50   20   47 1
    51   20   48 1
    52   21   49 1
    53   21   50 1
@<TRIPOS>MOLECULE
ZINC43824061
   54    54     0     0     0
SMALL
USER_CHARGES

@<TRIPOS>ATOM
      1 C1         -0.6622    1.3851   -0.8188 C.3       1 <0>        -0.2049
      2 C2         -0.3563   -0.0986   -0.6043 C.3       1 <0>        -0.0262
      3 N1          0.5177   -0.5793   -1.6828 N.4       1 <0>        -0.3778
      4 C3          0.3315   -2.0261   -1.8559 C.3       1 <0>         0.0051
      5 H1          0.4829   -2.5288   -0.9007 H         1 <0>         0.1619
      6 C4         -1.0874   -2.3012   -2.3578 C.3       1 <0>        -0.1672
      7 C5         -1.3000   -1.5956   -3.6986 C.3       1 <0>        -0.0946
      8 H2         -1.1618   -0.5221   -3.5702 H         1 <0>         0.0806
      9 C6         -0.2875   -2.1218   -4.7179 C.3       1 <0>        -0.1472
     10 C7          1.1314   -1.8467   -4.2161 C.3       1 <0>        -0.1618
     11 C8          1.3439   -2.5523   -2.8752 C.3       1 <0>         0.0043
     12 H3          2.3548   -2.3562   -2.5177 H         1 <0>         0.1631
     13 N2          1.1577   -3.9991   -3.0483 N.4       1 <0>        -0.5026
     14 C9          2.2047   -4.5250   -3.9344 C.3       1 <0>        -0.0562
     15 C10        -2.7189   -1.8708   -4.2005 C.3       1 <0>        -0.0567
     16 C11        -3.7313   -1.3446   -3.1812 C.3       1 <0>        -0.1557
     17 C12        -2.9314   -1.1652   -5.5413 C.3       1 <0>        -0.1545
     18 C13        -2.9128   -3.3777   -4.3807 C.3       1 <0>        -0.1586
     19 C14         1.9187   -0.3037   -1.3373 C.3       1 <0>         0.0098
     20 C15         2.1069    1.2007   -1.1317 C.3       1 <0>        -0.1897
     21 C16         2.2811   -1.0439   -0.0482 C.3       1 <0>        -0.1888
     22 H4          0.2379    1.9718   -0.6357 H         1 <0>         0.1002
     23 H5         -0.9963    1.5426   -1.8443 H         1 <0>         0.0798
     24 H6         -1.4463    1.6977   -0.1292 H         1 <0>         0.1130
     25 H7          0.1438   -0.2315    0.3550 H         1 <0>         0.1425
     26 H8         -1.2869   -0.6661   -0.6107 H         1 <0>         0.1348
     27 H9         -1.2256   -3.3748   -2.4862 H         1 <0>         0.1115
     28 H10        -1.8087   -1.9264   -1.6316 H         1 <0>         0.1240
     29 H11        -0.4257   -3.1954   -4.8463 H         1 <0>         0.0792
     30 H12        -0.4389   -1.6191   -5.6732 H         1 <0>         0.1172
     31 H13         1.8527   -2.2215   -4.9422 H         1 <0>         0.1218
     32 H14         1.2696   -0.7731   -4.0876 H         1 <0>         0.1065
     33 H15         1.2165   -4.4556   -2.1504 H         1 <0>         0.4367
     34 H16         2.0665   -5.5986   -4.0629 H         1 <0>         0.1425
     35 H17         2.1412   -4.0319   -4.9044 H         1 <0>         0.1319
     36 H18         3.1832   -4.3348   -3.4935 H         1 <0>         0.1332
     37 H19        -3.5932   -0.2711   -3.0527 H         1 <0>         0.0605
     38 H20        -4.7422   -1.5406   -3.5387 H         1 <0>         0.0735
     39 H21        -3.5799   -1.8473   -2.2259 H         1 <0>         0.0562
     40 H22        -2.2101   -1.5401   -6.2675 H         1 <0>         0.0615
     41 H23        -3.9423   -1.3612   -5.8988 H         1 <0>         0.0716
     42 H24        -2.7932   -0.0916   -5.4129 H         1 <0>         0.0611
     43 H25        -2.7614   -3.8804   -3.4255 H         1 <0>         0.0548
     44 H26        -3.9237   -3.5737   -4.7383 H         1 <0>         0.0754
     45 H27        -2.1915   -3.7526   -5.1069 H         1 <0>         0.0593
     46 H28         2.5659   -0.6437   -2.1457 H         1 <0>         0.1353
     47 H29         1.7054    1.4876   -0.1598 H         1 <0>         0.0971
     48 H30         3.1689    1.4428   -1.1720 H         1 <0>         0.1110
     49 H31         1.5804    1.7433   -1.9168 H         1 <0>         0.0862
     50 H32         2.1523   -2.1161   -0.1964 H         1 <0>         0.0730
     51 H33         3.3189   -0.8350    0.2112 H         1 <0>         0.1167
     52 H34         1.6301   -0.7079    0.7589 H         1 <0>         0.0934
     53 H35         0.2836   -0.1048   -2.5420 H         1 <0>         0.4243
     54 H36         0.2519   -4.1752   -3.4565 H         1 <0>         0.4320
@<TRIPOS>BOND
     1    1    2 1
     2    1   22 1
     3    1   23 1
     4    1   24 1
     5    2    3 1
     6    2   25 1
     7    2   26 1
     8    3    4 1
     9    3   19 1
    10    3   53 1
    11    4    5 1
    12    4   11 1
    13    4    6 1
    14    6    7 1
    15    6   27 1
    16    6   28 1
    17    7    8 1
    18    7    9 1
    19    7   15 1
    20    9   10 1
    21    9   29 1
    22    9   30 1
    23   10   11 1
    24   10   31 1
    25   10   32 1
    26   11   12 1
    27   11   13 1
    28   13   14 1
    29   13   33 1
    30   13   54 1
    31   14   34 1
    32   14   35 1
    33   14   36 1
    34   15   16 1
    35   15   17 1
    36   15   18 1
    37   16   37 1
    38   16   38 1
    39   16   39 1
    40   17   40 1
    41   17   41 1
    42   17   42 1
    43   18   43 1
    44   18   44 1
    45   18   45 1
    46   19   20 1
    47   19   21 1
    48   19   46 1
    49   20   47 1
    50   20   48 1
    51   20   49 1
    52   21   50 1
    53   21   51 1
    54   21   52 1
@<TRIPOS>MOLECULE
ZINC49799980
   52    53     0     0     0
SMALL
USER_CHARGES

@<TRIPOS>ATOM
      1 C1          0.3290    1.4691    0.5371 C.3       1 <0>        -0.1587
      2 C2          0.3087   -0.0590    0.4631 C.3       1 <0>        -0.0936
      3 H1         -0.7196   -0.4039    0.3547 H         1 <0>         0.0592
      4 C3          1.1317   -0.5223   -0.7406 C.3       1 <0>        -0.1325
      5 C4          1.1114   -2.0504   -0.8146 C.3       1 <0>        -0.1332
      6 C5          1.7115   -2.6310    0.4674 C.3       1 <0>        -0.1451
      7 C6          0.8886   -2.1678    1.6711 C.3       1 <0>         0.0343
      8 H2          1.3161   -2.5814    2.5845 H         1 <0>         0.1449
      9 C7          0.9089   -0.6397    1.7451 C.3       1 <0>        -0.1097
     10 H3          1.9372   -0.2948    1.8536 H         1 <0>         0.1248
     11 C8          0.0859   -0.1764    2.9489 C.3       1 <0>        -0.1730
     12 N1         -0.4973   -2.6326    1.5250 N.4       1 <0>        -0.5101
     13 C9         -0.5292   -4.1004    1.5741 C.3       1 <0>        -0.0125
     14 C10        -1.9726   -4.5845    1.4219 C.3       1 <0>        -0.1819
     15 C11        -1.9965   -6.1139    1.3861 C.3       1 <0>         0.0346
     16 H4         -1.4932   -6.5054    2.2702 H         1 <0>         0.1470
     17 C12        -1.2749   -6.6054    0.1295 C.3       1 <0>        -0.1482
     18 C13        -1.3011   -8.1363    0.0982 C.3       1 <0>        -0.1396
     19 C14        -2.7551   -8.6134    0.1566 C.3       1 <0>        -0.1502
     20 C15        -3.4219   -8.0475    1.4123 C.3       1 <0>        -0.0080
     21 N2         -3.3880   -6.5806    1.3691 N.4       1 <0>        -0.3812
     22 C16        -4.0979   -6.0419    2.5369 C.3       1 <0>        -0.0574
     23 H5          1.3573    1.8140    0.6455 H         1 <0>         0.0686
     24 H6         -0.0985    1.8828   -0.3762 H         1 <0>         0.0689
     25 H7         -0.2573    1.7991    1.3947 H         1 <0>         0.0663
     26 H8          0.7041   -0.1086   -1.6540 H         1 <0>         0.0839
     27 H9          2.1600   -0.1774   -0.6322 H         1 <0>         0.0843
     28 H10         0.0831   -2.3953   -0.9231 H         1 <0>         0.0511
     29 H11         1.6977   -2.3804   -1.6722 H         1 <0>         0.0958
     30 H12         1.6971   -3.7197    0.4147 H         1 <0>         0.0863
     31 H13         2.7398   -2.2862    0.5758 H         1 <0>         0.1185
     32 H14        -0.9424   -0.5213    2.8404 H         1 <0>         0.0470
     33 H15         0.5135   -0.5901    3.8622 H         1 <0>         0.0754
     34 H16         0.1004    0.9122    3.0016 H         1 <0>         0.0935
     35 H17        -1.0584   -2.2586    2.2756 H         1 <0>         0.4278
     36 H18         0.0770   -4.5043    0.7633 H         1 <0>         0.1442
     37 H19        -0.1307   -4.4407    2.5299 H         1 <0>         0.1447
     38 H20        -2.5651   -4.2315    2.2659 H         1 <0>         0.1140
     39 H21        -2.3913   -4.1928    0.4949 H         1 <0>         0.1115
     40 H22        -1.7776   -6.2146   -0.7552 H         1 <0>         0.0948
     41 H23        -0.2414   -6.2593    0.1443 H         1 <0>         0.1096
     42 H24        -0.8381   -8.4900   -0.8230 H         1 <0>         0.1016
     43 H25        -0.7543   -8.5278    0.9560 H         1 <0>         0.0859
     44 H26        -3.2885   -8.2643   -0.7275 H         1 <0>         0.0909
     45 H27        -2.7797   -9.7026    0.1909 H         1 <0>         0.1197
     46 H28        -4.4572   -8.3854    1.4571 H         1 <0>         0.1389
     47 H29        -2.8879   -8.3974    2.2958 H         1 <0>         0.1325
     48 H30        -4.1894   -4.9601    2.4393 H         1 <0>         0.1221
     49 H31        -5.0913   -6.4867    2.5952 H         1 <0>         0.1339
     50 H32        -3.5399   -6.2791    3.4426 H         1 <0>         0.1261
     51 H33        -0.8661   -2.3176    0.6402 H         1 <0>         0.4262
     52 H34        -3.8392   -6.2591    0.5259 H         1 <0>         0.4260
@<TRIPOS>BOND
     1    1    2 1
     2    1   23 1
     3    1   24 1
     4    1   25 1
     5    2    3 1
     6    2    9 1
     7    2    4 1
     8    4    5 1
     9    4   26 1
    10    4   27 1
    11    5    6 1
    12    5   28 1
    13    5   29 1
    14    6    7 1
    15    6   30 1
    16    6   31 1
    17    7    8 1
    18    7    9 1
    19    7   12 1
    20    9   10 1
    21    9   11 1
    22   11   32 1
    23   11   33 1
    24   11   34 1
    25   12   13 1
    26   12   35 1
    27   12   51 1
    28   13   14 1
    29   13   36 1
    30   13   37 1
    31   14   15 1
    32   14   38 1
    33   14   39 1
    34   15   16 1
    35   15   21 1
    36   15   17 1
    37   17   18 1
    38   17   40 1
    39   17   41 1
    40   18   19 1
    41   18   42 1
    42   18   43 1
    43   19   20 1
    44   19   44 1
    45   19   45 1
    46   20   21 1
    47   20   46 1
    48   20   47 1
    49   21   22 1
    50   21   52 1
    51   22   48 1
    52   22   49 1
    53   22   50 1
@<TRIPOS>MOLECULE
ZINC53497687
   52    53     0     0     0
SMALL
USER_CHARGES

@<TRIPOS>ATOM
      1 C1          1.2893   -2.9312    5.1545 C.3       1 <0>        -0.1554
      2 C2          0.6627   -2.1662    6.3220 C.3       1 <0>        -0.1040
      3 C3         -0.8323   -2.4834    6.3958 C.3       1 <0>        -0.1134
      4 C4         -1.5080   -2.0628    5.0892 C.3       1 <0>        -0.1457
      5 C5         -1.3155   -0.5600    4.8762 C.3       1 <0>         0.0198
      6 C6          0.1795   -0.2427    4.8023 C.3       1 <0>        -0.1421
      7 C7          0.8552   -0.6634    6.1090 C.3       1 <0>        -0.1142
      8 N1         -1.9643   -0.1561    3.6216 N.4       1 <0>        -0.3966
      9 C8         -1.8617    1.3008    3.4642 C.3       1 <0>        -0.0762
     10 C9         -3.3800   -0.5466    3.6547 C.3       1 <0>        -0.0042
     11 H1         -3.4562   -1.6267    3.7796 H         1 <0>         0.1653
     12 C10        -4.0746    0.1523    4.8252 C.3       1 <0>        -0.1864
     13 C11        -4.0531   -0.1360    2.3435 C.3       1 <0>        -0.0364
     14 N2         -3.3238   -0.7260    1.2130 N.4       1 <0>        -0.5212
     15 C12        -4.0389   -0.4346   -0.0366 C.3       1 <0>         0.0185
     16 C13        -5.3728   -1.2086   -0.0751 C.3       1 <0>        -0.1450
     17 C14        -5.5278   -1.6248   -1.5589 C.3       1 <0>        -0.1265
     18 C15        -4.0755   -1.9723   -1.9700 C.3       1 <0>        -0.1331
     19 C16        -3.2141   -0.9202   -1.2415 C.3       1 <0>        -0.1452
     20 H2          2.3543   -2.7052    5.1019 H         1 <0>         0.0664
     21 H3          1.1521   -4.0018    5.3062 H         1 <0>         0.0652
     22 H4          0.8079   -2.6315    4.2236 H         1 <0>         0.0456
     23 H5          1.1441   -2.4659    7.2528 H         1 <0>         0.0939
     24 H6         -0.9694   -3.5540    6.5475 H         1 <0>         0.0906
     25 H7         -1.2787   -1.9384    7.2276 H         1 <0>         0.0787
     26 H8         -1.0616   -2.6078    4.2574 H         1 <0>         0.0896
     27 H9         -2.5730   -2.2888    5.1418 H         1 <0>         0.0863
     28 H10        -1.7619   -0.0150    5.7079 H         1 <0>         0.1507
     29 H11         0.6259   -0.7877    3.9706 H         1 <0>         0.0899
     30 H12         0.3166    0.8279    4.6506 H         1 <0>         0.0906
     31 H13         0.4088   -0.1184    6.9407 H         1 <0>         0.0785
     32 H14         1.9202   -0.4374    6.0564 H         1 <0>         0.0915
     33 H15        -0.8112    1.5906    3.4397 H         1 <0>         0.1447
     34 H16        -2.3431    1.6005    2.5334 H         1 <0>         0.1186
     35 H17        -2.3547    1.7925    4.3029 H         1 <0>         0.1438
     36 H18        -3.9985    1.2325    4.7004 H         1 <0>         0.0969
     37 H19        -5.1251   -0.1374    4.8498 H         1 <0>         0.1209
     38 H20        -3.5951   -0.1402    5.7594 H         1 <0>         0.1052
     39 H21        -5.0833   -0.4921    2.3369 H         1 <0>         0.1797
     40 H22        -4.0436    0.9503    2.2548 H         1 <0>         0.1602
     41 H23        -2.3958   -0.3323    1.1692 H         1 <0>         0.4151
     42 H24        -4.2252    0.6362   -0.1189 H         1 <0>         0.1523
     43 H25        -5.3212   -2.0895    0.5648 H         1 <0>         0.0893
     44 H26        -6.1972   -0.5633    0.2283 H         1 <0>         0.1036
     45 H27        -6.1743   -2.4977   -1.6498 H         1 <0>         0.0951
     46 H28        -5.9101   -0.7959   -2.1547 H         1 <0>         0.0888
     47 H29        -3.8144   -2.9766   -1.6361 H         1 <0>         0.0805
     48 H30        -3.9531   -1.8843   -3.0495 H         1 <0>         0.0944
     49 H31        -3.0008   -0.0852   -1.9089 H         1 <0>         0.1110
     50 H32        -2.2832   -1.3720   -0.8989 H         1 <0>         0.0850
     51 H33        -1.5079   -0.6112    2.8453 H         1 <0>         0.4056
     52 H34        -3.2597   -1.7251    1.3388 H         1 <0>         0.4338
@<TRIPOS>BOND
     1    1    2 1
     2    1   20 1
     3    1   21 1
     4    1   22 1
     5    2    7 1
     6    2    3 1
     7    2   23 1
     8    3    4 1
     9    3   24 1
    10    3   25 1
    11    4    5 1
    12    4   26 1
    13    4   27 1
    14    5    6 1
    15    5    8 1
    16    5   28 1
    17    6    7 1
    18    6   29 1
    19    6   30 1
    20    7   31 1
    21    7   32 1
    22    8    9 1
    23    8   10 1
    24    8   51 1
    25    9   33 1
    26    9   34 1
    27    9   35 1
    28   10   11 1
    29   10   12 1
    30   10   13 1
    31   12   36 1
    32   12   37 1
    33   12   38 1
    34   13   14 1
    35   13   39 1
    36   13   40 1
    37   14   15 1
    38   14   41 1
    39   14   52 1
    40   15   19 1
    41   15   16 1
    42   15   42 1
    43   16   17 1
    44   16   43 1
    45   16   44 1
    46   17   18 1
    47   17   45 1
    48   17   46 1
    49   18   19 1
    50   18   47 1
    51   18   48 1
    52   19   49 1
    53   19   50 1
@<TRIPOS>MOLECULE
ZINC61819334
   52    53     0     0     0
SMALL
USER_CHARGES

@<TRIPOS>ATOM
      1 C1          2.1516    1.8534   -1.4057 C.3       1 <0>        -0.1750
      2 C2          2.2672    0.3399   -1.2140 C.3       1 <0>        -0.1672
      3 C3          0.8675   -0.2707   -1.1199 C.3       1 <0>         0.0007
      4 H1          0.2823    0.0262   -1.9903 H         1 <0>         0.1641
      5 C4          0.9783   -1.7960   -1.0760 C.3       1 <0>         0.0045
      6 H2         -0.0202   -2.2323   -1.0484 H         1 <0>         0.1599
      7 C5          1.7527   -2.2153    0.1752 C.3       1 <0>        -0.2104
      8 N1          1.6869   -2.2701   -2.2723 N.4       1 <0>        -0.3758
      9 C6          0.9903   -1.7929   -3.4728 C.3       1 <0>        -0.0233
     10 C7          1.7690   -2.2154   -4.7207 C.3       1 <0>        -0.1370
     11 C8          1.8705   -3.7423   -4.7589 C.3       1 <0>        -0.0661
     12 C9          0.4694   -4.3445   -4.8765 C.3       1 <0>        -0.1163
     13 C10         0.5717   -5.8708   -4.9116 C.3       1 <0>        -0.1245
     14 C11         1.4143   -6.2976   -6.1152 C.3       1 <0>        -0.1278
     15 C12         2.8159   -5.6957   -5.9962 C.3       1 <0>        -0.1256
     16 C13         2.7143   -4.1694   -5.9607 C.3       1 <0>        -0.1103
     17 C14         2.5314   -4.2347   -3.4687 C.3       1 <0>        -0.1429
     18 C15         1.7245   -3.7374   -2.2673 C.3       1 <0>        -0.0147
     19 N2          0.2057    0.2075    0.1013 N.4       1 <0>        -0.5029
     20 C16        -1.1818   -0.2743    0.1271 C.3       1 <0>        -0.0621
     21 H3          1.6510    2.0627   -2.3511 H         1 <0>         0.0801
     22 H4          1.5734    2.2803   -0.5862 H         1 <0>         0.0621
     23 H5          3.1479    2.2954   -1.4164 H         1 <0>         0.0980
     24 H6          2.7968   -0.0944   -2.0620 H         1 <0>         0.1047
     25 H7          2.8172    0.1308   -0.2964 H         1 <0>         0.1100
     26 H8          2.7512   -1.7791    0.1476 H         1 <0>         0.1032
     27 H9          1.2269   -1.8635    1.0628 H         1 <0>         0.1035
     28 H10         1.8317   -3.3020    0.2064 H         1 <0>         0.1153
     29 H11        -0.0106   -2.2230   -3.5067 H         1 <0>         0.1393
     30 H12         0.9169   -0.7058   -3.4417 H         1 <0>         0.1278
     31 H13         1.2487   -1.8627   -5.6112 H         1 <0>         0.1206
     32 H14         2.7698   -1.7847   -4.6885 H         1 <0>         0.0932
     33 H15        -0.1301   -4.0401   -4.0186 H         1 <0>         0.0529
     34 H16        -0.0023   -3.9908   -5.7933 H         1 <0>         0.0803
     35 H17         1.0426   -6.2246   -3.9945 H         1 <0>         0.0628
     36 H18        -0.4267   -6.3000   -4.9964 H         1 <0>         0.0723
     37 H19         1.4868   -7.3848   -6.1407 H         1 <0>         0.0720
     38 H20         0.9435   -5.9433   -7.0322 H         1 <0>         0.0687
     39 H21         3.2867   -6.0499   -5.0791 H         1 <0>         0.0642
     40 H22         3.4160   -6.0001   -6.8537 H         1 <0>         0.0749
     41 H23         2.2449   -3.8151   -6.8785 H         1 <0>         0.0770
     42 H24         3.7127   -3.7407   -5.8744 H         1 <0>         0.0706
     43 H25         2.5558   -5.3244   -3.4651 H         1 <0>         0.1268
     44 H26         3.5484   -3.8470   -3.4098 H         1 <0>         0.0926
     45 H27         2.1927   -4.0853   -1.3465 H         1 <0>         0.1376
     46 H28         0.7081   -4.1267   -2.3266 H         1 <0>         0.1369
     47 H29         0.6982   -0.1419    0.9096 H         1 <0>         0.4328
     48 H30        -1.7047    0.1692    0.9744 H         1 <0>         0.1448
     49 H31        -1.6825    0.0102   -0.7983 H         1 <0>         0.1332
     50 H32        -1.1876   -1.3600    0.2244 H         1 <0>         0.1249
     51 H33         2.6297   -1.9107   -2.2679 H         1 <0>         0.4245
     52 H34         0.2116    1.2164    0.1140 H         1 <0>         0.4454
@<TRIPOS>BOND
     1    1    2 1
     2    1   21 1
     3    1   22 1
     4    1   23 1
     5    2    3 1
     6    2   24 1
     7    2   25 1
     8    3    4 1
     9    3    5 1
    10    3   19 1
    11    5    6 1
    12    5    7 1
    13    5    8 1
    14    7   26 1
    15    7   27 1
    16    7   28 1
    17    8   18 1
    18    8    9 1
    19    8   51 1
    20    9   10 1
    21    9   29 1
    22    9   30 1
    23   10   11 1
    24   10   31 1
    25   10   32 1
    26   11   16 1
    27   11   12 1
    28   11   17 1
    29   12   13 1
    30   12   33 1
    31   12   34 1
    32   13   14 1
    33   13   35 1
    34   13   36 1
    35   14   15 1
    36   14   37 1
    37   14   38 1
    38   15   16 1
    39   15   39 1
    40   15   40 1
    41   16   41 1
    42   16   42 1
    43   17   18 1
    44   17   43 1
    45   17   44 1
    46   18   45 1
    47   18   46 1
    48   19   20 1
    49   19   47 1
    50   19   52 1
    51   20   48 1
    52   20   49 1
    53   20   50 1
@<TRIPOS>MOLECULE
ZINC36199013
   54    54     0     0     0
SMALL
USER_CHARGES

@<TRIPOS>ATOM
      1 C1         -1.5274    0.5799    1.5953 C.3       1 <0>        -0.1548
      2 C2         -1.6318   -0.7983    0.9391 C.3       1 <0>        -0.1318
      3 C3         -3.0792   -1.2890    1.0109 C.3       1 <0>        -0.1872
      4 C4         -1.1985   -0.7002   -0.5250 C.3       1 <0>        -0.0278
      5 N1         -1.2611   -2.0308   -1.1443 N.4       1 <0>        -0.3854
      6 C5         -0.8507   -3.0463   -0.1655 C.3       1 <0>        -0.0484
      7 C6          0.6706   -3.0152   -0.0056 C.3       1 <0>        -0.1122
      8 C7          1.0648   -1.8444    0.8970 C.3       1 <0>        -0.1872
      9 C8          1.1441   -4.3267    0.6243 C.3       1 <0>        -0.1545
     10 C9         -2.6362   -2.3020   -1.5841 C.3       1 <0>         0.0068
     11 H1         -3.3055   -2.2018   -0.7297 H         1 <0>         0.1752
     12 C10        -3.0227   -1.2884   -2.6269 C.3       1 <0>        -0.1521
     13 C11        -4.5212   -0.9625   -2.4616 C.3       1 <0>        -0.1192
     14 C12        -5.3785   -1.9741   -3.0615 C.3       1 <0>        -0.1343
     15 C13        -5.1998   -3.3594   -2.4071 C.3       1 <0>        -0.1259
     16 C14        -3.9637   -4.0013   -2.9765 C.3       1 <0>        -0.1305
     17 C15        -2.7148   -3.7473   -2.1120 C.3       1 <0>        -0.1312
     18 H2         -2.7319   -4.4310   -1.2633 H         1 <0>         0.1207
     19 C16        -1.4667   -4.0355   -2.9487 C.3       1 <0>        -0.0380
     20 N2         -1.4887   -5.4350   -3.3947 N.4       1 <0>        -0.6331
     21 H3         -1.8361    0.5100    2.6383 H         1 <0>         0.0824
     22 H4         -0.4963    0.9296    1.5442 H         1 <0>         0.0710
     23 H5         -2.1756    1.2820    1.0709 H         1 <0>         0.0704
     24 H6         -0.9836   -1.5004    1.4636 H         1 <0>         0.1121
     25 H7         -3.6758   -0.7722    0.2592 H         1 <0>         0.0758
     26 H8         -3.1086   -2.3623    0.8231 H         1 <0>         0.0587
     27 H9         -3.4842   -1.0822    2.0015 H         1 <0>         0.0937
     28 H10        -1.8647   -0.0204   -1.0563 H         1 <0>         0.1419
     29 H11        -0.1773   -0.3228   -0.5772 H         1 <0>         0.1459
     30 H12        -1.3213   -2.8362    0.7950 H         1 <0>         0.1580
     31 H13        -1.1594   -4.0321   -0.5135 H         1 <0>         0.1227
     32 H14         1.1362   -2.8929   -0.9835 H         1 <0>         0.0878
     33 H15         2.1510   -1.7926    0.9714 H         1 <0>         0.0853
     34 H16         0.6849   -0.9149    0.4729 H         1 <0>         0.0706
     35 H17         0.6392   -1.9915    1.8896 H         1 <0>         0.0792
     36 H18         0.8633   -5.1608   -0.0187 H         1 <0>         0.0591
     37 H19         2.2279   -4.3045    0.7382 H         1 <0>         0.0851
     38 H20         0.6784   -4.4490    1.6022 H         1 <0>         0.0743
     39 H21        -2.4336   -0.3813   -2.4919 H         1 <0>         0.0994
     40 H22        -2.8448   -1.6993   -3.6207 H         1 <0>         0.0957
     41 H23        -4.7515   -0.8899   -1.3986 H         1 <0>         0.0738
     42 H24        -4.7273   -0.0010   -2.9319 H         1 <0>         0.0901
     43 H25        -6.4181   -1.6646   -2.9544 H         1 <0>         0.0837
     44 H26        -5.1429   -2.0521   -4.1229 H         1 <0>         0.0717
     45 H27        -5.0887   -3.2434   -1.3290 H         1 <0>         0.0719
     46 H28        -6.0683   -3.9814   -2.6237 H         1 <0>         0.0897
     47 H29        -4.1278   -5.0761   -3.0530 H         1 <0>         0.0848
     48 H30        -3.7867   -3.6015   -3.9750 H         1 <0>         0.0889
     49 H31        -1.4518   -3.3775   -3.8176 H         1 <0>         0.1531
     50 H32        -0.5762   -3.8605   -2.3451 H         1 <0>         0.1266
     51 H33        -1.5024   -6.0442   -2.5905 H         1 <0>         0.4408
     52 H34        -2.3130   -5.5970   -3.9535 H         1 <0>         0.4444
     53 H35        -0.6414   -2.0608   -1.9400 H         1 <0>         0.4127
     54 H36        -0.6656   -5.6251   -3.9466 H         1 <0>         0.4496
@<TRIPOS>BOND
     1    1    2 1
     2    1   21 1
     3    1   22 1
     4    1   23 1
     5    2    3 1
     6    2    4 1
     7    2   24 1
     8    3   25 1
     9    3   26 1
    10    3   27 1
    11    4    5 1
    12    4   28 1
    13    4   29 1
    14    5    6 1
    15    5   10 1
    16    5   53 1
    17    6    7 1
    18    6   30 1
    19    6   31 1
    20    7    8 1
    21    7    9 1
    22    7   32 1
    23    8   33 1
    24    8   34 1
    25    8   35 1
    26    9   36 1
    27    9   37 1
    28    9   38 1
    29   10   11 1
    30   10   17 1
    31   10   12 1
    32   12   13 1
    33   12   39 1
    34   12   40 1
    35   13   14 1
    36   13   41 1
    37   13   42 1
    38   14   15 1
    39   14   43 1
    40   14   44 1
    41   15   16 1
    42   15   45 1
    43   15   46 1
    44   16   17 1
    45   16   47 1
    46   16   48 1
    47   17   18 1
    48   17   19 1
    49   19   20 1
    50   19   49 1
    51   19   50 1
    52   20   51 1
    53   20   52 1
    54   20   54 1
@<TRIPOS>MOLECULE
ZINC37157315
   52    53     0     0     0
SMALL
USER_CHARGES

@<TRIPOS>ATOM
      1 C1         -0.8621    1.4976    0.7339 C.3       1 <0>        -0.1605
      2 C2         -0.6496   -0.0008    0.5090 C.3       1 <0>        -0.1256
      3 C3          0.2135   -0.5686    1.6375 C.3       1 <0>        -0.1192
      4 C4          0.4260   -2.0670    1.4126 C.3       1 <0>        -0.0825
      5 H1          0.8464   -2.2294    0.4201 H         1 <0>         0.0870
      6 C5         -0.9153   -2.7946    1.5236 C.3       1 <0>        -0.1278
      7 C6         -0.7028   -4.2930    1.2987 C.3       1 <0>        -0.1272
      8 C7          0.2609   -4.8358    2.3558 C.3       1 <0>        -0.1406
      9 H2         -0.1595   -4.6734    3.3483 H         1 <0>         0.1219
     10 C8          1.6022   -4.1081    2.2448 C.3       1 <0>         0.0285
     11 H3          2.0226   -4.2705    1.2523 H         1 <0>         0.1516
     12 C9          1.3897   -2.6098    2.4697 C.3       1 <0>        -0.1399
     13 N1          2.5275   -4.6293    3.2598 N.4       1 <0>        -0.3645
     14 C10         1.9746   -4.3403    4.5973 C.3       1 <0>        -0.0185
     15 C11         2.5424   -5.3422    5.5710 C.3       1 <0>        -0.1479
     16 C12         3.7714   -4.7778    6.3079 C.3       1 <0>        -0.1333
     17 C13         4.6865   -3.9740    5.3620 C.3       1 <0>        -0.1428
     18 C14         4.8450   -4.6356    4.0169 C.3       1 <0>        -0.1332
     19 C15         3.7874   -4.0666    3.0481 C.3       1 <0>        -0.0423
     20 C16         0.4734   -6.3342    2.1309 C.3       1 <0>        -0.0211
     21 N2         -0.7961   -7.0447    2.3345 N.4       1 <0>        -0.6351
     22 H4          0.1031    2.0041    0.7432 H         1 <0>         0.0575
     23 H5         -1.4770    1.9021   -0.0700 H         1 <0>         0.0621
     24 H6         -1.3637    1.6541    1.6889 H         1 <0>         0.0564
     25 H7         -1.6147   -0.5073    0.4998 H         1 <0>         0.0639
     26 H8         -0.1480   -0.1573   -0.4460 H         1 <0>         0.0645
     27 H9          1.1787   -0.0621    1.6468 H         1 <0>         0.0714
     28 H10        -0.2881   -0.4121    2.5925 H         1 <0>         0.0691
     29 H11        -1.3357   -2.6322    2.5161 H         1 <0>         0.0772
     30 H12        -1.6019   -2.4079    0.7705 H         1 <0>         0.0955
     31 H13        -1.6584   -4.8114    1.3778 H         1 <0>         0.0823
     32 H14        -0.2825   -4.4554    0.3062 H         1 <0>         0.0943
     33 H15         2.3453   -2.0914    2.3906 H         1 <0>         0.1002
     34 H16         0.9693   -2.4474    3.4622 H         1 <0>         0.0942
     35 H17         2.2563   -3.3321    4.9013 H         1 <0>         0.1431
     36 H18         0.8883   -4.4270    4.5724 H         1 <0>         0.1304
     37 H19         1.7768   -5.6020    6.3021 H         1 <0>         0.1097
     38 H20         2.8343   -6.2410    5.0279 H         1 <0>         0.0779
     39 H21         3.4340   -4.1263    7.1141 H         1 <0>         0.0846
     40 H22         4.3399   -5.6039    6.7350 H         1 <0>         0.0859
     41 H23         4.2611   -2.9807    5.2190 H         1 <0>         0.0706
     42 H24         5.6688   -3.8723    5.8233 H         1 <0>         0.0923
     43 H25         5.8426   -4.4341    3.6268 H         1 <0>         0.1152
     44 H26         4.7030   -5.7113    4.1207 H         1 <0>         0.0860
     45 H27         4.0990   -4.2704    2.0237 H         1 <0>         0.1343
     46 H28         3.7218   -2.9877    3.1889 H         1 <0>         0.1356
     47 H29         0.8248   -6.5025    1.1129 H         1 <0>         0.1542
     48 H30         1.2153   -6.7060    2.8375 H         1 <0>         0.1240
     49 H31        -1.1214   -6.8889    3.2768 H         1 <0>         0.4399
     50 H32        -1.4829   -6.7005    1.6803 H         1 <0>         0.4433
     51 H33         2.5974   -5.6298    3.1497 H         1 <0>         0.4073
     52 H34        -0.6560   -8.0329    2.1861 H         1 <0>         0.4501
@<TRIPOS>BOND
     1    1    2 1
     2    1   22 1
     3    1   23 1
     4    1   24 1
     5    2    3 1
     6    2   25 1
     7    2   26 1
     8    3    4 1
     9    3   27 1
    10    3   28 1
    11    4    5 1
    12    4   12 1
    13    4    6 1
    14    6    7 1
    15    6   29 1
    16    6   30 1
    17    7    8 1
    18    7   31 1
    19    7   32 1
    20    8    9 1
    21    8   10 1
    22    8   20 1
    23   10   11 1
    24   10   12 1
    25   10   13 1
    26   12   33 1
    27   12   34 1
    28   13   19 1
    29   13   14 1
    30   13   51 1
    31   14   15 1
    32   14   35 1
    33   14   36 1
    34   15   16 1
    35   15   37 1
    36   15   38 1
    37   16   17 1
    38   16   39 1
    39   16   40 1
    40   17   18 1
    41   17   41 1
    42   17   42 1
    43   18   19 1
    44   18   43 1
    45   18   44 1
    46   19   45 1
    47   19   46 1
    48   20   21 1
    49   20   47 1
    50   20   48 1
    51   21   49 1
    52   21   50 1
    53   21   52 1
@<TRIPOS>MOLECULE
ZINC42492464
   54    54     0     0     0
SMALL
USER_CHARGES

@<TRIPOS>ATOM
      1 C1         -0.1065    3.2734    1.5248 C.3       1 <0>        -0.1672
      2 C2         -0.7055    1.9830    0.9618 C.3       1 <0>        -0.0848
      3 H1         -0.6258    1.9895   -0.1253 H         1 <0>         0.0982
      4 C3         -2.1783    1.8862    1.3646 C.3       1 <0>        -0.1291
      5 C4         -2.2901    1.8771    2.8905 C.3       1 <0>        -0.1232
      6 C5         -1.5281    0.6743    3.4506 C.3       1 <0>        -0.1403
      7 C6         -0.0553    0.7711    3.0477 C.3       1 <0>        -0.0072
      8 H2          0.3714    1.6904    3.4488 H         1 <0>         0.1670
      9 C7          0.0565    0.7802    1.5218 C.3       1 <0>        -0.1428
     10 N1          0.6763   -0.3837    3.5854 N.4       1 <0>        -0.3866
     11 C8          0.2173   -0.6605    4.9531 C.3       1 <0>        -0.0700
     12 C9          2.1150   -0.0872    3.6024 C.3       1 <0>         0.0343
     13 C10         2.3230    1.4235    3.7261 C.3       1 <0>        -0.1900
     14 C11         2.7668   -0.7911    4.7943 C.3       1 <0>        -0.1603
     15 C12         4.2652   -0.4823    4.8119 C.3       1 <0>        -0.1246
     16 C13         4.9169   -1.1861    6.0039 C.3       1 <0>        -0.0940
     17 C14         6.4322   -0.9805    5.9514 C.3       1 <0>        -0.1580
     18 C15         4.3674   -0.5992    7.3056 C.3       1 <0>        -0.1592
     19 C16         2.7537   -0.5854    2.3043 C.3       1 <0>        -0.0398
     20 N2          2.4534   -2.0124    2.1271 N.4       1 <0>        -0.6447
     21 H3          0.9428    3.3423    1.2378 H         1 <0>         0.0613
     22 H4         -0.6493    4.1302    1.1258 H         1 <0>         0.0786
     23 H5         -0.1861    3.2669    2.6118 H         1 <0>         0.0575
     24 H6         -2.7212    2.7430    0.9657 H         1 <0>         0.0873
     25 H7         -2.6050    0.9669    0.9636 H         1 <0>         0.0727
     26 H8         -1.8634    2.7964    3.2916 H         1 <0>         0.0808
     27 H9         -3.3394    1.8081    3.1775 H         1 <0>         0.0921
     28 H10        -1.6078    0.6678    4.5376 H         1 <0>         0.0957
     29 H11        -1.9549   -0.2450    3.0495 H         1 <0>         0.0877
     30 H12        -0.3702   -0.1391    1.1208 H         1 <0>         0.0889
     31 H13         1.1058    0.8492    1.2348 H         1 <0>         0.0801
     32 H14         0.4013    0.2108    5.5815 H         1 <0>         0.1376
     33 H15        -0.8502   -0.8805    4.9406 H         1 <0>         0.1433
     34 H16         0.7602   -1.5174    5.3521 H         1 <0>         0.1335
     35 H17         1.8680    1.7784    4.6508 H         1 <0>         0.1070
     36 H18         3.3905    1.6435    3.7386 H         1 <0>         0.1233
     37 H19         1.8587    1.9249    2.8769 H         1 <0>         0.1025
     38 H20         2.3118   -0.4362    5.7190 H         1 <0>         0.1249
     39 H21         2.6186   -1.8673    4.7062 H         1 <0>         0.0853
     40 H22         4.7202   -0.8372    3.8872 H         1 <0>         0.0698
     41 H23         4.4134    0.5940    4.9001 H         1 <0>         0.0922
     42 H24         4.6933   -2.2522    5.9630 H         1 <0>         0.0741
     43 H25         6.6558    0.0855    5.9922 H         1 <0>         0.0623
     44 H26         6.8965   -1.4819    6.8005 H         1 <0>         0.0690
     45 H27         6.8237   -1.3986    5.0240 H         1 <0>         0.0574
     46 H28         3.2879   -0.7457    7.3429 H         1 <0>         0.0505
     47 H29         4.8317   -1.1007    8.1547 H         1 <0>         0.0693
     48 H30         4.5910    0.4668    7.3464 H         1 <0>         0.0629
     49 H31         2.3517   -0.0221    1.4621 H         1 <0>         0.1671
     50 H32         3.8334   -0.4446    2.3533 H         1 <0>         0.1864
     51 H33         1.4566   -2.1564    2.1880 H         1 <0>         0.4187
     52 H34         2.7824   -2.3155    1.2226 H         1 <0>         0.4630
     53 H35         2.9150   -2.5454    2.8488 H         1 <0>         0.4472
     54 H36         0.5060   -1.1903    3.0037 H         1 <0>         0.3924
@<TRIPOS>BOND
     1    1    2 1
     2    1   21 1
     3    1   22 1
     4    1   23 1
     5    2    3 1
     6    2    9 1
     7    2    4 1
     8    4    5 1
     9    4   24 1
    10    4   25 1
    11    5    6 1
    12    5   26 1
    13    5   27 1
    14    6    7 1
    15    6   28 1
    16    6   29 1
    17    7    8 1
    18    7    9 1
    19    7   10 1
    20    9   30 1
    21    9   31 1
    22   10   11 1
    23   10   12 1
    24   10   54 1
    25   11   32 1
    26   11   33 1
    27   11   34 1
    28   12   13 1
    29   12   14 1
    30   12   19 1
    31   13   35 1
    32   13   36 1
    33   13   37 1
    34   14   15 1
    35   14   38 1
    36   14   39 1
    37   15   16 1
    38   15   40 1
    39   15   41 1
    40   16   17 1
    41   16   18 1
    42   16   42 1
    43   17   43 1
    44   17   44 1
    45   17   45 1
    46   18   46 1
    47   18   47 1
    48   18   48 1
    49   19   20 1
    50   19   49 1
    51   19   50 1
    52   20   51 1
    53   20   52 1
    54   20   53 1
@<TRIPOS>MOLECULE
ZINC51259597
   54    54     0     0     0
SMALL
USER_CHARGES

@<TRIPOS>ATOM
      1 C1          2.0804   -2.4432    0.5676 C.3       1 <0>        -0.1662
      2 C2          0.8852   -1.9092   -0.2245 C.3       1 <0>        -0.1336
      3 C3         -0.3795   -2.6639    0.1899 C.3       1 <0>        -0.1617
      4 C4         -1.5747   -2.1299   -0.6022 C.3       1 <0>        -0.1054
      5 C5         -1.3889   -2.4537   -2.0860 C.3       1 <0>        -0.1671
      6 C6         -1.6714   -0.6139   -0.4193 C.3       1 <0>        -0.0011
      7 N1         -1.8498   -0.3030    1.0053 N.4       1 <0>        -0.6448
      8 C7         -2.8588   -2.7880   -0.0935 C.3       1 <0>        -0.0302
      9 N2         -2.7110   -4.2488   -0.1376 N.4       1 <0>        -0.3808
     10 C8         -2.0630   -4.7129    1.0964 C.3       1 <0>        -0.0859
     11 C9         -4.0359   -4.8716   -0.2590 C.3       1 <0>         0.0219
     12 C10        -4.7108   -4.3882   -1.5442 C.3       1 <0>        -0.1394
     13 C11        -6.0907   -5.0368   -1.6707 C.3       1 <0>        -0.1149
     14 C12        -5.9368   -6.5584   -1.7166 C.3       1 <0>        -0.0947
     15 C13        -5.2619   -7.0417   -0.4314 C.3       1 <0>        -0.1165
     16 C14        -3.8820   -6.3931   -0.3049 C.3       1 <0>        -0.1408
     17 C15        -7.3168   -7.2070   -1.8431 C.3       1 <0>        -0.1227
     18 C16        -7.1559   -8.7188   -2.0143 C.3       1 <0>        -0.1601
     19 H1          2.9814   -1.9056    0.2723 H         1 <0>         0.0740
     20 H2          1.9037   -2.2985    1.6334 H         1 <0>         0.0597
     21 H3          2.2073   -3.5060    0.3613 H         1 <0>         0.0647
     22 H4          0.7583   -0.8465   -0.0183 H         1 <0>         0.0651
     23 H5          1.0619   -2.0539   -1.2904 H         1 <0>         0.0873
     24 H6         -0.2526   -3.7266   -0.0163 H         1 <0>         0.0991
     25 H7         -0.5562   -2.5192    1.2557 H         1 <0>         0.0803
     26 H8         -1.4009   -3.5346   -2.2262 H         1 <0>         0.0728
     27 H9         -2.1987   -2.0037   -2.6602 H         1 <0>         0.0910
     28 H10        -0.4346   -2.0535   -2.4285 H         1 <0>         0.1021
     29 H11        -0.7566   -0.1451   -0.7817 H         1 <0>         0.1598
     30 H12        -2.5229   -0.2335   -0.9836 H         1 <0>         0.1524
     31 H13        -1.0617   -0.6551    1.5277 H         1 <0>         0.4368
     32 H14        -1.9137    0.6967    1.1259 H         1 <0>         0.4524
     33 H15        -3.0467   -2.4726    0.9328 H         1 <0>         0.1211
     34 H16        -3.6954   -2.4882   -0.7247 H         1 <0>         0.1548
     35 H17        -1.8859   -5.7865    1.0321 H         1 <0>         0.1362
     36 H18        -1.1127   -4.1949    1.2247 H         1 <0>         0.1385
     37 H19        -2.7098   -4.5018    1.9480 H         1 <0>         0.1276
     38 H20        -4.6479   -4.5940    0.5992 H         1 <0>         0.1404
     39 H21        -4.8205   -3.3042   -1.5115 H         1 <0>         0.0831
     40 H22        -4.0988   -4.6658   -2.4025 H         1 <0>         0.0894
     41 H23        -6.7027   -4.7593   -0.8125 H         1 <0>         0.0762
     42 H24        -6.5715   -4.6925   -2.5863 H         1 <0>         0.0889
     43 H25        -5.3249   -6.8359   -2.5749 H         1 <0>         0.0789
     44 H26        -5.8739   -6.7642    0.4268 H         1 <0>         0.0761
     45 H27        -5.1523   -8.1257   -0.4641 H         1 <0>         0.0925
     46 H28        -3.2701   -6.6707   -1.1632 H         1 <0>         0.0880
     47 H29        -3.4012   -6.7375    0.6107 H         1 <0>         0.0900
     48 H30        -7.8979   -7.0030   -0.9438 H         1 <0>         0.0661
     49 H31        -7.8333   -6.7960   -2.7105 H         1 <0>         0.0697
     50 H32        -8.1390   -9.1809   -2.1044 H         1 <0>         0.0628
     51 H33        -6.5748   -8.9229   -2.9136 H         1 <0>         0.0567
     52 H34        -6.6394   -9.1298   -1.1469 H         1 <0>         0.0560
     53 H35        -2.1445   -4.5058   -0.9321 H         1 <0>         0.4246
     54 H36        -2.6967   -0.7370    1.3408 H         1 <0>         0.4293
@<TRIPOS>BOND
     1    1    2 1
     2    1   19 1
     3    1   20 1
     4    1   21 1
     5    2    3 1
     6    2   22 1
     7    2   23 1
     8    3    4 1
     9    3   24 1
    10    3   25 1
    11    4    5 1
    12    4    6 1
    13    4    8 1
    14    5   26 1
    15    5   27 1
    16    5   28 1
    17    6    7 1
    18    6   29 1
    19    6   30 1
    20    7   31 1
    21    7   32 1
    22    7   54 1
    23    8    9 1
    24    8   33 1
    25    8   34 1
    26    9   10 1
    27    9   11 1
    28    9   53 1
    29   10   35 1
    30   10   36 1
    31   10   37 1
    32   11   16 1
    33   11   12 1
    34   11   38 1
    35   12   13 1
    36   12   39 1
    37   12   40 1
    38   13   14 1
    39   13   41 1
    40   13   42 1
    41   14   15 1
    42   14   17 1
    43   14   43 1
    44   15   16 1
    45   15   44 1
    46   15   45 1
    47   16   46 1
    48   16   47 1
    49   17   18 1
    50   17   48 1
    51   17   49 1
    52   18   50 1
    53   18   51 1
    54   18   52 1
@<TRIPOS>MOLECULE
ZINC54560652
   55    55     0     0     0
SMALL
USER_CHARGES

@<TRIPOS>ATOM
      1 C1         -0.0187    1.5258    0.0104 C.3       1 <0>        -0.1919
      2 C2          0.0021   -0.0041    0.0020 C.3       1 <0>        -0.0163
      3 N1          0.7126   -0.4907    1.1921 N.4       1 <0>        -0.5158
      4 C3          0.7325   -1.9595    1.1840 C.3       1 <0>         0.0418
      5 H1          1.1628   -2.3119    0.2466 H         1 <0>         0.1534
      6 C4         -0.6962   -2.4897    1.3206 C.3       1 <0>        -0.1453
      7 C5         -1.3002   -1.9951    2.6364 C.3       1 <0>        -0.1396
      8 C6         -0.4547   -2.5001    3.8073 C.3       1 <0>        -0.0857
      9 H2         -0.4399   -3.5900    3.8013 H         1 <0>         0.0940
     10 C7          0.9740   -1.9699    3.6708 C.3       1 <0>        -0.1467
     11 C8          1.5780   -2.4646    2.3550 C.3       1 <0>        -0.1395
     12 H3          1.5927   -3.5545    2.3490 H         1 <0>         0.1447
     13 C9          3.0066   -1.9344    2.2184 C.3       1 <0>        -0.0258
     14 N2          3.8472   -2.5146    3.2742 N.4       1 <0>        -0.3800
     15 C10         3.9508   -3.9664    3.0753 C.3       1 <0>        -0.0628
     16 C11         5.1874   -1.9158    3.2176 C.3       1 <0>        -0.0505
     17 C12         6.0243   -2.4266    4.3921 C.3       1 <0>         0.0807
     18 H4          6.1085   -3.5118    4.3335 H         1 <0>         0.1269
     19 C13         7.4202   -1.8029    4.3332 C.3       1 <0>        -0.1917
     20 O1          5.3920   -2.0636    5.6211 O.3       1 <0>        -0.5552
     21 C14        -1.0587   -2.0055    5.1232 C.3       1 <0>        -0.0913
     22 C15        -2.4874   -2.5357    5.2597 C.3       1 <0>        -0.1592
     23 C16        -0.2132   -2.5105    6.2941 C.3       1 <0>        -0.1567
     24 H5          1.0039    1.9031    0.0027 H         1 <0>         0.0809
     25 H6         -0.5459    1.8868   -0.8726 H         1 <0>         0.1151
     26 H7         -0.5289    1.8773    0.9072 H         1 <0>         0.0824
     27 H8         -1.0205   -0.3814    0.0098 H         1 <0>         0.1388
     28 H9          0.5123   -0.3556   -0.8948 H         1 <0>         0.1371
     29 H10         1.6592   -0.1414    1.1850 H         1 <0>         0.4176
     30 H11        -1.2985   -2.1299    0.4864 H         1 <0>         0.1031
     31 H12        -0.6814   -3.5796    1.3146 H         1 <0>         0.1189
     32 H13        -1.3150   -0.9052    2.6424 H         1 <0>         0.0621
     33 H14        -2.3180   -2.3728    2.7337 H         1 <0>         0.1076
     34 H15         0.9592   -0.8801    3.6768 H         1 <0>         0.0750
     35 H16         1.5763   -2.3297    4.5050 H         1 <0>         0.0925
     36 H17         3.4055   -2.2120    1.2428 H         1 <0>         0.1477
     37 H18         3.0019   -0.8485    2.3134 H         1 <0>         0.1227
     38 H19         4.5745   -4.3969    3.8587 H         1 <0>         0.1362
     39 H20         2.9564   -4.4107    3.1173 H         1 <0>         0.1275
     40 H21         4.3984   -4.1687    2.1022 H         1 <0>         0.1306
     41 H22         5.6698   -2.1927    2.2802 H         1 <0>         0.1460
     42 H23         5.1033   -0.8306    3.2762 H         1 <0>         0.1353
     43 H24         7.3360   -0.7177    4.3918 H         1 <0>         0.0729
     44 H25         8.0164   -2.1668    5.1699 H         1 <0>         0.0931
     45 H26         7.9026   -2.0798    3.3957 H         1 <0>         0.0819
     46 H27         5.2838   -1.1102    5.7412 H         1 <0>         0.3900
     47 H28        -1.0735   -0.9156    5.1292 H         1 <0>         0.0728
     48 H29        -2.4726   -3.6256    5.2537 H         1 <0>         0.0615
     49 H30        -2.9177   -2.1833    6.1971 H         1 <0>         0.0669
     50 H31        -3.0897   -2.1759    4.4255 H         1 <0>         0.0598
     51 H32        -0.1984   -3.6004    6.2881 H         1 <0>         0.0613
     52 H33         0.8046   -2.1328    6.1968 H         1 <0>         0.0492
     53 H34        -0.6435   -2.1581    7.2315 H         1 <0>         0.0685
     54 H35         0.2403   -0.1653    2.0223 H         1 <0>         0.4273
     55 H36         3.4329   -2.3273    4.1750 H         1 <0>         0.4300
@<TRIPOS>BOND
     1    1    2 1
     2    1   24 1
     3    1   25 1
     4    1   26 1
     5    2    3 1
     6    2   27 1
     7    2   28 1
     8    3    4 1
     9    3   29 1
    10    3   54 1
    11    4    5 1
    12    4   11 1
    13    4    6 1
    14    6    7 1
    15    6   30 1
    16    6   31 1
    17    7    8 1
    18    7   32 1
    19    7   33 1
    20    8    9 1
    21    8   10 1
    22    8   21 1
    23   10   11 1
    24   10   34 1
    25   10   35 1
    26   11   12 1
    27   11   13 1
    28   13   14 1
    29   13   36 1
    30   13   37 1
    31   14   15 1
    32   14   16 1
    33   14   55 1
    34   15   38 1
    35   15   39 1
    36   15   40 1
    37   16   17 1
    38   16   41 1
    39   16   42 1
    40   17   18 1
    41   17   19 1
    42   17   20 1
    43   19   43 1
    44   19   44 1
    45   19   45 1
    46   20   46 1
    47   21   22 1
    48   21   23 1
    49   21   47 1
    50   22   48 1
    51   22   49 1
    52   22   50 1
    53   23   51 1
    54   23   52 1
    55   23   53 1
@<TRIPOS>MOLECULE
ZINC13019167
   37    38     0     0     0
SMALL
USER_CHARGES
(5S)-N'-(2-methoxyacetyl)-5-methyl-4,5,6,7-tetrahydrobenzothiophene-2-carbohydrazide
@<TRIPOS>ATOM
      1 C1         -8.5747   -0.0179    0.3463 C.3       1 <0>        -0.1490
      2 C2         -7.0899   -0.3544    0.4975 C.3       1 <0>        -0.0937
      3 H1         -6.8733   -0.5676    1.5443 H         1 <0>         0.0742
      4 C3         -6.7585   -1.5851   -0.3512 C.3       1 <0>        -0.1102
      5 C4         -5.3491   -2.0723    0.0148 C.3       1 <0>        -0.0472
      6 C5         -4.4273   -0.8919    0.0178 C.2       1 <0>        -0.1462
      7 C6         -4.7793    0.4278    0.0270 C.2       1 <0>        -0.1427
      8 C7         -3.7449    1.3493    0.0271 C.2       1 <0>        -0.0467
      9 C8         -2.4466    0.8737    0.0184 C.2       1 <0>        -0.2492
     10 S1         -2.7050   -0.8923    0.0021 S.3       1 <0>         0.1519
     11 C9         -1.1873    1.6238    0.0165 C.2       1 <0>         0.6130
     12 O1         -1.2038    2.8407    0.0232 O.2       1 <0>        -0.5252
     13 N1         -0.0111    0.9658    0.0074 N.am      1 <0>        -0.5170
     14 N2          1.1926    1.6828   -0.0003 N.am      1 <0>        -0.5194
     15 C10         2.3687    1.0248   -0.0151 C.2       1 <0>         0.5148
     16 O2          2.3852   -0.1878   -0.0217 O.2       1 <0>        -0.5127
     17 C11         3.6634    1.7960   -0.0233 C.3       1 <0>         0.0558
     18 O3          4.7620    0.8823   -0.0387 O.3       1 <0>        -0.3659
     19 C12         6.0436    1.5144   -0.0475 C.3       1 <0>         0.0295
     20 C13        -6.2498    0.8375    0.0377 C.3       1 <0>        -0.0527
     21 H2         -8.7933    0.1999   -0.6991 H         1 <0>         0.0568
     22 H3         -9.1749   -0.8668    0.6738 H         1 <0>         0.0581
     23 H4         -8.8139    0.8531    0.9566 H         1 <0>         0.0572
     24 H5         -7.4822   -2.3745   -0.1484 H         1 <0>         0.0769
     25 H6         -6.7930   -1.3203   -1.4080 H         1 <0>         0.0702
     26 H7         -5.3640   -2.5289    1.0045 H         1 <0>         0.0904
     27 H8         -5.0102   -2.8016   -0.7209 H         1 <0>         0.0875
     28 H9         -3.9470    2.4102    0.0335 H         1 <0>         0.1471
     29 H10         0.0021   -0.0041    0.0020 H         1 <0>         0.4327
     30 H11         1.1794    2.6527    0.0050 H         1 <0>         0.4349
     31 H12         3.7042    2.4282   -0.9103 H         1 <0>         0.0901
     32 H13         3.7212    2.4186    0.8696 H         1 <0>         0.0901
     33 H14         6.1507    2.1311    0.8448 H         1 <0>         0.0473
     34 H15         6.8240    0.7534   -0.0591 H         1 <0>         0.0954
     35 H16         6.1337    2.1407   -0.9350 H         1 <0>         0.0473
     36 H17        -6.3917    1.6714    0.7251 H         1 <0>         0.0776
     37 H18        -6.5533    1.1356   -0.9659 H         1 <0>         0.0788
@<TRIPOS>BOND
     1    1    2 1
     2    1   21 1
     3    1   22 1
     4    1   23 1
     5    2    3 1
     6    2   20 1
     7    2    4 1
     8    4    5 1
     9    4   24 1
    10    4   25 1
    11    5    6 1
    12    5   26 1
    13    5   27 1
    14    6   10 1
    15    6    7 2
    16    7    8 1
    17    7   20 1
    18    8    9 2
    19    8   28 1
    20    9   10 1
    21    9   11 1
    22   11   12 2
    23   11   13 am
    24   13   14 1
    25   13   29 1
    26   14   15 am
    27   14   30 1
    28   15   16 2
    29   15   17 1
    30   17   18 1
    31   17   31 1
    32   17   32 1
    33   18   19 1
    34   19   33 1
    35   19   34 1
    36   19   35 1
    37   20   36 1
    38   20   37 1
@<TRIPOS>MOLECULE
ZINC37562191
   46    47     0     0     0
SMALL
USER_CHARGES

@<TRIPOS>ATOM
      1 C1         -0.0187    1.5258    0.0104 C.3       1 <0>        -0.1493
      2 C2          0.0021   -0.0041    0.0020 C.3       1 <0>        -0.1060
      3 H1         -1.0203   -0.3818    0.0098 H         1 <0>         0.0764
      4 C3          0.7197   -0.4983   -1.2561 C.3       1 <0>        -0.1209
      5 C4          0.7122   -2.0284   -1.2819 C.3       1 <0>        -0.1383
      6 C5          1.4632   -2.5595   -0.0568 C.3       1 <0>         0.0943
      7 N1          0.8694   -1.9734    1.1526 N.am      1 <0>        -0.5888
      8 C6          0.7443   -0.5122    1.2421 C.3       1 <0>         0.1120
      9 C7          0.4467   -2.7613    2.1611 C.2       1 <0>         0.5007
     10 O1         -0.0418   -2.2654    3.1542 O.2       1 <0>        -0.5326
     11 C8          0.5811   -4.2586    2.0547 C.3       1 <0>        -0.0340
     12 N2          0.0520   -4.8855    3.2732 N.4       1 <0>        -0.4930
     13 C9          0.1830   -6.3450    3.1695 C.3       1 <0>         0.0247
     14 C10        -0.7040   -6.8572    2.0329 C.3       1 <0>        -0.1391
     15 C11        -0.5675   -8.3772    1.9249 C.3       1 <0>        -0.0899
     16 C12        -1.0024   -9.0232    3.2419 C.3       1 <0>        -0.1641
     17 C13        -0.1155   -8.5110    4.3785 C.3       1 <0>        -0.0901
     18 C14        -0.2519   -6.9909    4.4865 C.3       1 <0>        -0.1372
     19 C15        -0.8680  -10.5204    3.1355 C.2       1 <0>         0.4921
     20 O2         -0.6227  -11.1826    4.1294 O.co2     1 <0>        -0.6903
     21 O3         -1.0047  -11.0695    2.0555 O.co2     1 <0>        -0.6914
     22 H2          1.0039    1.9031    0.0027 H         1 <0>         0.0600
     23 H3         -0.5459    1.8868   -0.8726 H         1 <0>         0.0646
     24 H4         -0.5289    1.8773    0.9072 H         1 <0>         0.0604
     25 H5          0.2072   -0.1177   -2.1396 H         1 <0>         0.0744
     26 H6          1.7492   -0.1402   -1.2513 H         1 <0>         0.0697
     27 H7         -0.3167   -2.3876   -1.2618 H         1 <0>         0.0712
     28 H8          1.2029   -2.3794   -2.1897 H         1 <0>         0.0871
     29 H9          1.3762   -3.6453   -0.0173 H         1 <0>         0.0864
     30 H10         2.5140   -2.2771   -0.1216 H         1 <0>         0.0870
     31 H11         1.7365   -0.0628    1.2837 H         1 <0>         0.0801
     32 H12         0.1830   -0.2472    2.1380 H         1 <0>         0.0991
     33 H13         0.0196   -4.6132    1.1904 H         1 <0>         0.1614
     34 H14         1.6324   -4.5216    1.9379 H         1 <0>         0.1597
     35 H15         0.5717   -4.5572    4.0733 H         1 <0>         0.4308
     36 H16         1.2219   -6.6028    2.9641 H         1 <0>         0.1399
     37 H17        -1.7429   -6.5993    2.2384 H         1 <0>         0.0831
     38 H18        -0.3941   -6.3970    1.0947 H         1 <0>         0.0763
     39 H19        -1.1994   -8.7421    1.1152 H         1 <0>         0.0884
     40 H20         0.4714   -8.6351    1.7194 H         1 <0>         0.0664
     41 H21        -2.0414   -8.7653    3.4473 H         1 <0>         0.0688
     42 H22        -0.4253   -8.9712    5.3168 H         1 <0>         0.0893
     43 H23         0.9234   -8.7688    4.1730 H         1 <0>         0.0662
     44 H24         0.3799   -6.6260    5.2963 H         1 <0>         0.0814
     45 H25        -1.2909   -6.7331    4.6920 H         1 <0>         0.0830
     46 H26        -0.9212   -4.6420    3.3814 H         1 <0>         0.4304
@<TRIPOS>BOND
     1    1    2 1
     2    1   22 1
     3    1   23 1
     4    1   24 1
     5    2    3 1
     6    2    8 1
     7    2    4 1
     8    4    5 1
     9    4   25 1
    10    4   26 1
    11    5    6 1
    12    5   27 1
    13    5   28 1
    14    6    7 1
    15    6   29 1
    16    6   30 1
    17    7    8 1
    18    7    9 am
    19    8   31 1
    20    8   32 1
    21    9   10 2
    22    9   11 1
    23   11   12 1
    24   11   33 1
    25   11   34 1
    26   12   13 1
    27   12   35 1
    28   12   46 1
    29   13   18 1
    30   13   14 1
    31   13   36 1
    32   14   15 1
    33   14   37 1
    34   14   38 1
    35   15   16 1
    36   15   39 1
    37   15   40 1
    38   16   17 1
    39   16   19 1
    40   16   41 1
    41   17   18 1
    42   17   42 1
    43   17   43 1
    44   18   44 1
    45   18   45 1
    46   19   20 2
    47   19   21 1
@<TRIPOS>MOLECULE
ZINC48222079
   36    37     0     0     0
SMALL
USER_CHARGES

@<TRIPOS>ATOM
      1 C1          0.2889    1.5109    0.2016 C.3       1 <0>        -0.1404
      2 C2          0.0849    0.0012    0.0599 C.3       1 <0>        -0.0698
      3 C3          0.7494   -0.4790   -1.2046 C.2       1 <0>        -0.0113
      4 C4          0.1590   -0.5577   -2.4886 C.2       1 <0>        -0.2548
      5 C5          1.1269   -1.0513   -3.3496 C.2       1 <0>         0.1118
      6 N1          2.2482   -1.2661   -2.6459 N.pl3     1 <0>        -0.5281
      7 H1          3.0801   -1.6102   -3.0070 H         1 <0>         0.4187
      8 C6          2.0348   -0.9145   -1.3302 C.2       1 <0>        -0.0654
      9 C7          3.0225   -0.9985   -0.2479 C.2       1 <0>         0.5878
     10 O1          2.7182   -0.6617    0.8808 O.2       1 <0>        -0.4497
     11 N2          4.2666   -1.4487   -0.5045 N.am      1 <0>        -0.6306
     12 C8          5.1959   -1.5277    0.5137 C.2       1 <0>         0.4103
     13 N3          5.0227   -1.2128    1.7644 N.2       1 <0>        -0.5295
     14 C9          6.1036   -1.3244    2.7267 C.3       1 <0>         0.0490
     15 C10         7.2314   -2.2508    2.1957 C.3       1 <0>        -0.0875
     16 S1          6.8859   -2.0908    0.3932 S.3       1 <0>        -0.2258
     17 C11         0.9493   -1.3040   -4.8246 C.3       1 <0>        -0.0997
     18 C12        -1.2155   -0.1882   -2.8410 C.2       1 <0>         0.4351
     19 O2         -1.4614    0.9351   -3.2278 O.2       1 <0>        -0.4471
     20 C13        -2.3226   -1.2037   -2.7227 C.3       1 <0>        -0.1982
     21 H2          1.3556    1.7308    0.2456 H         1 <0>         0.0557
     22 H3         -0.1517    2.0192   -0.6560 H         1 <0>         0.0538
     23 H4         -0.1917    1.8582    1.1162 H         1 <0>         0.0603
     24 H5          0.5255   -0.5071    0.9175 H         1 <0>         0.0933
     25 H6         -0.9818   -0.2187    0.0159 H         1 <0>         0.0697
     26 H7          4.5092   -1.7172   -1.4045 H         1 <0>         0.4188
     27 H8          6.5153   -0.3336    2.9188 H         1 <0>         0.1012
     28 H9          5.7127   -1.7342    3.6580 H         1 <0>         0.1102
     29 H10         8.2192   -1.8690    2.4535 H         1 <0>         0.1290
     30 H11         7.1003   -3.2781    2.5356 H         1 <0>         0.1076
     31 H12         1.1269   -0.3804   -5.3755 H         1 <0>         0.0877
     32 H13         1.6592   -2.0640   -5.1511 H         1 <0>         0.0770
     33 H14        -0.0666   -1.6505   -5.0142 H         1 <0>         0.0885
     34 H15        -2.8114   -1.0972   -1.7543 H         1 <0>         0.0986
     35 H16        -3.0511   -1.0412   -3.5171 H         1 <0>         0.0887
     36 H17        -1.9063   -2.2071   -2.8112 H         1 <0>         0.0848
@<TRIPOS>BOND
     1    1    2 1
     2    1   21 1
     3    1   22 1
     4    1   23 1
     5    2    3 1
     6    2   24 1
     7    2   25 1
     8    3    8 2
     9    3    4 1
    10    4    5 2
    11    4   18 1
    12    5    6 1
    13    5   17 1
    14    6    7 1
    15    6    8 1
    16    8    9 1
    17    9   10 2
    18    9   11 am
    19   11   12 1
    20   11   26 1
    21   12   16 1
    22   12   13 2
    23   13   14 1
    24   14   15 1
    25   14   27 1
    26   14   28 1
    27   15   16 1
    28   15   29 1
    29   15   30 1
    30   17   31 1
    31   17   32 1
    32   17   33 1
    33   18   19 2
    34   18   20 1
    35   20   34 1
    36   20   35 1
    37   20   36 1
@<TRIPOS>MOLECULE
ZINC52882100
   40    41     0     0     0
SMALL
USER_CHARGES

@<TRIPOS>ATOM
      1 C1          1.2176   -0.5240    0.7292 C.3       1 <0>        -0.1238
      2 C2         -0.0058   -0.0081   -0.0311 C.3       1 <0>         0.1554
      3 C3         -1.2231   -0.7936    0.3837 C.ar      1 <0>        -0.0855
      4 C4         -1.3757   -2.1029   -0.0324 C.ar      1 <0>        -0.1028
      5 C5         -2.4924   -2.8234    0.3481 C.ar      1 <0>        -0.1187
      6 C6         -3.4563   -2.2347    1.1451 C.ar      1 <0>        -0.1152
      7 C7         -3.3032   -0.9256    1.5621 C.ar      1 <0>        -0.1239
      8 C8         -2.1845   -0.2065    1.1851 C.ar      1 <0>        -0.0963
      9 C9          0.2173   -0.1724   -1.5124 C.2       1 <0>         0.5109
     10 O1          1.2822   -0.5822   -1.9235 O.2       1 <0>        -0.5146
     11 N1         -0.7665    0.1361   -2.3804 N.am      1 <0>        -0.6024
     12 C10        -2.1348    0.5477   -2.0173 C.3       1 <0>         0.0952
     13 C11        -2.6425    1.3562   -3.2373 C.3       1 <0>        -0.1341
     14 C12        -2.0144    0.5677   -4.4167 C.3       1 <0>        -0.1180
     15 C13        -0.6511    0.1239   -3.8460 C.3       1 <0>         0.1460
     16 H1          0.1286    0.8169   -4.1622 H         1 <0>         0.1146
     17 C14        -0.3275   -1.2684   -4.3231 C.2       1 <0>         0.4487
     18 O2         -0.2039   -2.1671   -3.5250 O.2       1 <0>        -0.4814
     19 O3         -0.1766   -1.5103   -5.6348 O.3       1 <0>        -0.3542
     20 C15         0.1294   -2.8531   -6.0159 C.3       1 <0>         0.0350
     21 N2         -0.2111    1.4132    0.2785 N.3       1 <0>        -0.8212
     22 H2          1.3700   -1.5786    0.4995 H         1 <0>         0.0697
     23 H3          2.0981    0.0441    0.4292 H         1 <0>         0.0669
     24 H4          1.0562   -0.4052    1.8007 H         1 <0>         0.0757
     25 H5         -0.6227   -2.5629   -0.6551 H         1 <0>         0.1211
     26 H6         -2.6120   -3.8462    0.0224 H         1 <0>         0.1213
     27 H7         -4.3290   -2.7974    1.4418 H         1 <0>         0.1216
     28 H8         -4.0564   -0.4656    2.1845 H         1 <0>         0.1238
     29 H9         -2.0631    0.8150    1.5139 H         1 <0>         0.1373
     30 H10        -2.7635   -0.3276   -1.8540 H         1 <0>         0.0771
     31 H11        -2.1182    1.1756   -1.1264 H         1 <0>         0.0861
     32 H12        -3.7310    1.3392   -3.2916 H         1 <0>         0.0950
     33 H13        -2.2702    2.3803   -3.2097 H         1 <0>         0.0851
     34 H14        -2.6283   -0.2954   -4.6739 H         1 <0>         0.0840
     35 H15        -1.8751    1.2150   -5.2826 H         1 <0>         0.1013
     36 H16         0.2247   -2.9104   -7.1002 H         1 <0>         0.1037
     37 H17         1.0676   -3.1576   -5.5521 H         1 <0>         0.0607
     38 H18        -0.6708   -3.5157   -5.6860 H         1 <0>         0.0595
     39 H19         0.6300    1.9448    0.1116 H         1 <0>         0.3527
     40 H20        -0.9866    1.7892   -0.2463 H         1 <0>         0.3438
@<TRIPOS>BOND
     1    1    2 1
     2    1   22 1
     3    1   23 1
     4    1   24 1
     5    2    3 1
     6    2    9 1
     7    2   21 1
     8    3    8 ar
     9    3    4 ar
    10    4    5 ar
    11    4   25 1
    12    5    6 ar
    13    5   26 1
    14    6    7 ar
    15    6   27 1
    16    7    8 ar
    17    7   28 1
    18    8   29 1
    19    9   10 2
    20    9   11 am
    21   11   15 1
    22   11   12 1
    23   12   13 1
    24   12   30 1
    25   12   31 1
    26   13   14 1
    27   13   32 1
    28   13   33 1
    29   14   15 1
    30   14   34 1
    31   14   35 1
    32   15   16 1
    33   15   17 1
    34   17   18 2
    35   17   19 1
    36   19   20 1
    37   20   36 1
    38   20   37 1
    39   20   38 1
    40   21   39 1
    41   21   40 1
@<TRIPOS>MOLECULE
ZINC61766727
   43    45     0     0     0
SMALL
USER_CHARGES

@<TRIPOS>ATOM
      1 C1         -0.1042    1.3581   -0.4758 C.3       1 <0>        -0.1458
      2 C2         -0.0330   -0.1595   -0.2949 C.3       1 <0>        -0.0865
      3 H1         -1.0424   -0.5702   -0.2711 H         1 <0>         0.0671
      4 C3          0.7412   -0.7763   -1.4615 C.3       1 <0>        -0.1160
      5 C4          0.8124   -2.2939   -1.2807 C.3       1 <0>        -0.1224
      6 C5          1.5261   -2.6181    0.0333 C.3       1 <0>        -0.1208
      7 C6          0.7519   -2.0012    1.1999 C.3       1 <0>         0.1987
      8 C7          0.6807   -0.4836    1.0190 C.3       1 <0>        -0.1254
      9 C8          1.4656   -2.3253    2.5138 C.3       1 <0>         0.0605
     10 O1          1.4212   -3.7348    2.7448 O.3       1 <0>        -0.5682
     11 N1         -0.6047   -2.5533    1.2319 N.pl3     1 <0>        -0.6665
     12 C9         -1.4890   -2.1650    2.2297 C.2       1 <0>         0.3647
     13 C10        -2.8286   -2.7589    2.3088 C.2       1 <0>         0.4855
     14 O2         -3.1867   -3.6008    1.5027 O.2       1 <0>        -0.5305
     15 N2         -3.6559   -2.3507    3.2968 N.am      1 <0>        -0.4538
     16 C11        -3.2203   -1.4076    4.1799 C.2       1 <0>        -0.0114
     17 C12        -1.9811   -0.8825    4.0774 C.2       1 <0>         0.0213
     18 N3         -1.1352   -1.2636    3.1205 N.2       1 <0>        -0.5075
     19 C13        -5.0030   -2.9138    3.4167 C.3       1 <0>         0.0508
     20 C14        -5.9523   -2.2655    4.4265 C.3       1 <0>        -0.1742
     21 C15        -5.3510   -3.6422    4.7164 C.3       1 <0>        -0.1768
     22 H2          0.9052    1.7689   -0.4996 H         1 <0>         0.0545
     23 H3         -0.6126    1.5891   -1.4119 H         1 <0>         0.0530
     24 H4         -0.6557    1.7976    0.3553 H         1 <0>         0.0535
     25 H5          0.2328   -0.5454   -2.3976 H         1 <0>         0.0617
     26 H6          1.7506   -0.3656   -1.4854 H         1 <0>         0.0634
     27 H7         -0.1970   -2.7047   -1.2568 H         1 <0>         0.0610
     28 H8          1.3640   -2.7334   -2.1118 H         1 <0>         0.0673
     29 H9          1.5768   -3.6992    0.1621 H         1 <0>         0.0771
     30 H10         2.5355   -2.2073    0.0094 H         1 <0>         0.0792
     31 H11         1.6901   -0.0728    0.9952 H         1 <0>         0.0700
     32 H12         0.1291   -0.0441    1.8501 H         1 <0>         0.0951
     33 H13         2.5040   -1.9995    2.4532 H         1 <0>         0.0487
     34 H14         0.9694   -1.8069    3.3343 H         1 <0>         0.0756
     35 H15         1.8558   -4.0132    3.5626 H         1 <0>         0.3766
     36 H16        -0.8853   -3.1901    0.5561 H         1 <0>         0.4153
     37 H17        -3.8756   -1.0761    4.9718 H         1 <0>         0.1587
     38 H18        -1.6650   -0.1372    4.7922 H         1 <0>         0.1667
     39 H19        -5.4360   -3.2978    2.4931 H         1 <0>         0.1463
     40 H20        -5.5746   -1.4201    5.0015 H         1 <0>         0.1065
     41 H21        -7.0102   -2.2228    4.1671 H         1 <0>         0.1137
     42 H22        -6.0133   -4.5052    4.6478 H         1 <0>         0.1113
     43 H23        -4.5777   -3.7025    5.4822 H         1 <0>         0.1024
@<TRIPOS>BOND
     1    1    2 1
     2    1   22 1
     3    1   23 1
     4    1   24 1
     5    2    3 1
     6    2    8 1
     7    2    4 1
     8    4    5 1
     9    4   25 1
    10    4   26 1
    11    5    6 1
    12    5   27 1
    13    5   28 1
    14    6    7 1
    15    6   29 1
    16    6   30 1
    17    7    8 1
    18    7    9 1
    19    7   11 1
    20    8   31 1
    21    8   32 1
    22    9   10 1
    23    9   33 1
    24    9   34 1
    25   10   35 1
    26   11   12 1
    27   11   36 1
    28   12   18 2
    29   12   13 1
    30   13   14 2
    31   13   15 am
    32   15   16 1
    33   15   19 1
    34   16   17 2
    35   16   37 1
    36   17   18 1
    37   17   38 1
    38   19   21 1
    39   19   20 1
    40   19   39 1
    41   20   21 1
    42   20   40 1
    43   20   41 1
    44   21   42 1
    45   21   43 1
@<TRIPOS>MOLECULE
ZINC05497000
   31    32     0     0     0
SMALL
USER_CHARGES
5-chloro-3-(chloromethylene)-4,4-dimethoxy-1-methyl-7-azabicyclo[3.3.0]octane-6,8-dione
@<TRIPOS>ATOM
      1 C1         -0.7641    1.9809    1.4571 C.3       1 <0>        -0.1316
      2 C2         -0.0489    1.5263    0.1832 C.3       1 <0>        -0.0867
      3 C3         -0.0529   -0.0075    0.0237 C.3       1 <0>        -0.0691
      4 C4          1.3236   -0.4451    0.5117 C.2       1 <0>        -0.1549
      5 C5          1.6381   -1.5046    1.2179 C.2       1 <0>        -0.0280
      6 Cl1         0.3883   -2.5462    1.8238 Cl        1 <0>        -0.0625
      7 C6          2.2464    0.6461   -0.0194 C.3       1 <0>         0.3285
      8 C7          1.4419    1.9501    0.1552 C.3       1 <0>        -0.0386
      9 C8          1.5484    2.7743   -1.1083 C.2       1 <0>         0.5524
     10 O1          2.5588    3.3062   -1.5153 O.2       1 <0>        -0.4410
     11 N1          0.3524    2.8250   -1.7066 N.am      1 <0>        -0.6689
     12 C9         -0.6167    2.1589   -1.0677 C.2       1 <0>         0.5432
     13 O2         -1.7692    2.0756   -1.4343 O.2       1 <0>        -0.4560
     14 Cl2         1.9285    2.8637    1.6315 Cl        1 <0>        -0.0555
     15 O3          3.4514    0.6970    0.7470 O.3       1 <0>        -0.3698
     16 C10         4.4246    1.6123    0.2398 C.3       1 <0>         0.0193
     17 O4          2.5429    0.4210   -1.3990 O.3       1 <0>        -0.3790
     18 C11         3.2214   -0.8105   -1.6542 C.3       1 <0>         0.0284
     19 H1         -0.2778    1.5360    2.3252 H         1 <0>         0.0875
     20 H2         -0.7178    3.0673    1.5317 H         1 <0>         0.0740
     21 H3         -1.8061    1.6632    1.4218 H         1 <0>         0.0859
     22 H4         -0.8342   -0.4522    0.6402 H         1 <0>         0.1109
     23 H5         -0.1905   -0.2810   -1.0224 H         1 <0>         0.1020
     24 H6          2.6745   -1.7291    1.4225 H         1 <0>         0.1663
     25 H7          0.2002    3.3055   -2.5353 H         1 <0>         0.4257
     26 H8          3.9813    2.6046    0.1565 H         1 <0>         0.0625
     27 H9          5.2761    1.6507    0.9191 H         1 <0>         0.0949
     28 H10         4.7585    1.2799   -0.7431 H         1 <0>         0.0515
     29 H11         4.1205   -0.8640   -1.0403 H         1 <0>         0.0581
     30 H12         2.5642   -1.6450   -1.4094 H         1 <0>         0.0527
     31 H13         3.4971   -0.8620   -2.7075 H         1 <0>         0.0979
@<TRIPOS>BOND
     1    1    2 1
     2    1   19 1
     3    1   20 1
     4    1   21 1
     5    2    8 1
     6    2   12 1
     7    2    3 1
     8    3    4 1
     9    3   22 1
    10    3   23 1
    11    4    5 2
    12    4    7 1
    13    5    6 1
    14    5   24 1
    15    7    8 1
    16    7   15 1
    17    7   17 1
    18    8    9 1
    19    8   14 1
    20    9   10 2
    21    9   11 am
    22   11   12 am
    23   11   25 1
    24   12   13 2
    25   15   16 1
    26   16   26 1
    27   16   27 1
    28   16   28 1
    29   17   18 1
    30   18   29 1
    31   18   30 1
    32   18   31 1
@<TRIPOS>MOLECULE
ZINC37556557
   39    40     0     0     0
SMALL
USER_CHARGES

@<TRIPOS>ATOM
      1 C1         -0.5916    1.7216   -0.3285 C.3       1 <0>        -0.1612
      2 C2         -0.2759    0.2326   -0.1725 C.3       1 <0>        -0.0738
      3 C3          0.5516    0.0170    1.0962 C.3       1 <0>        -0.1627
      4 C4         -1.5821   -0.5576   -0.0699 C.3       1 <0>        -0.0890
      5 C5         -1.2946   -2.0489    0.1985 C.3       1 <0>        -0.1500
      6 C6         -1.9527   -2.3016    1.5374 C.2       1 <0>         0.5333
      7 O1         -1.9647   -3.3618    2.1249 O.2       1 <0>        -0.4666
      8 N1         -2.5193   -1.1686    1.9705 N.am      1 <0>        -0.5143
      9 C7         -2.3724   -0.1244    1.1456 C.2       1 <0>         0.5283
     10 O2         -2.8039    0.9913    1.3415 O.2       1 <0>        -0.4213
     11 C8         -3.2079   -1.0830    3.1838 C.ar      1 <0>         0.3301
     12 C9         -3.5544   -2.2470    3.8607 C.ar      1 <0>        -0.1732
     13 C10        -4.2369   -2.1557    5.0629 C.ar      1 <0>        -0.0523
     14 C11        -4.5526   -0.8988    5.5523 C.ar      1 <0>        -0.1502
     15 C12        -4.1758    0.2288    4.8240 C.ar      1 <0>         0.2553
     16 N2         -3.5172    0.1035    3.6769 N.ar      1 <0>        -0.4616
     17 C13        -4.4964    1.5335    5.3195 C.1       1 <0>        -0.1143
     18 C14        -4.7593    2.6031    5.7258 C.1       1 <0>        -0.1194
     19 C15        -5.0888    3.9443    6.2351 C.3       1 <0>         0.1896
     20 O3         -4.6042    4.9324    5.3236 O.3       1 <0>        -0.5664
     21 C16        -2.4143   -0.3867   -1.3423 C.3       1 <0>        -0.1372
     22 H1          0.3389    2.2845   -0.4016 H         1 <0>         0.0603
     23 H2         -1.1812    1.8752   -1.2323 H         1 <0>         0.0623
     24 H3         -1.1574    2.0657    0.5372 H         1 <0>         0.0725
     25 H4          0.2899   -0.1115   -1.0382 H         1 <0>         0.0942
     26 H5         -0.0142    0.3611    1.9620 H         1 <0>         0.0523
     27 H6          0.7765   -1.0438    1.2074 H         1 <0>         0.0594
     28 H7          1.4821    0.5799    1.0231 H         1 <0>         0.0702
     29 H8         -1.7454   -2.6716   -0.5742 H         1 <0>         0.1302
     30 H9         -0.2211   -2.2278    0.2589 H         1 <0>         0.1320
     31 H10        -3.2945   -3.2127    3.4532 H         1 <0>         0.1705
     32 H11        -4.5172   -3.0456    5.6068 H         1 <0>         0.1528
     33 H12        -5.0843   -0.7936    6.4865 H         1 <0>         0.1474
     34 H13        -6.1701    4.0400    6.3335 H         1 <0>         0.0801
     35 H14        -4.6212    4.0881    7.2092 H         1 <0>         0.0790
     36 H15        -4.7865    5.8421    5.5962 H         1 <0>         0.3914
     37 H16        -1.8471   -0.7506   -2.1990 H         1 <0>         0.0810
     38 H17        -3.3393   -0.9559   -1.2506 H         1 <0>         0.0631
     39 H18        -2.6493    0.6682   -1.4838 H         1 <0>         0.0781
@<TRIPOS>BOND
     1    1    2 1
     2    1   22 1
     3    1   23 1
     4    1   24 1
     5    2    3 1
     6    2    4 1
     7    2   25 1
     8    3   26 1
     9    3   27 1
    10    3   28 1
    11    4    9 1
    12    4    5 1
    13    4   21 1
    14    5    6 1
    15    5   29 1
    16    5   30 1
    17    6    7 2
    18    6    8 am
    19    8    9 am
    20    8   11 1
    21    9   10 2
    22   11   16 ar
    23   11   12 ar
    24   12   13 ar
    25   12   31 1
    26   13   14 ar
    27   13   32 1
    28   14   15 ar
    29   14   33 1
    30   15   16 ar
    31   15   17 1
    32   17   18 3
    33   18   19 1
    34   19   20 1
    35   19   34 1
    36   19   35 1
    37   20   36 1
    38   21   37 1
    39   21   38 1
    40   21   39 1
@<TRIPOS>MOLECULE
ZINC44868332
   33    34     0     0     0
SMALL
USER_CHARGES

@<TRIPOS>ATOM
      1 C1          2.7894   -1.6240    1.3392 C.3       1 <0>        -0.0738
      2 C2          1.4881   -1.6124    0.5791 C.2       1 <0>        -0.1436
      3 C3          0.4314   -2.4549    0.6830 C.2       1 <0>        -0.1082
      4 C4         -0.6712   -2.2500   -0.1251 C.2       1 <0>        -0.7094
      5 C5         -0.6631   -1.2127   -0.9975 C.2       1 <0>        -0.0297
      6 S1          0.9353   -0.4809   -0.6863 S.3       1 <0>         0.0942
      7 C6         -1.7290   -0.7848   -1.9731 C.3       1 <0>        -0.0993
      8 S2         -2.0662   -3.3216   -0.0229 S.o2      1 <0>         2.7006
      9 O1         -1.7562   -4.2991    0.9608 O.2       1 <0>        -0.9491
     10 O2         -3.2132   -2.4877    0.0666 O.2       1 <0>        -0.9468
     11 N1         -2.1751   -4.1227   -1.4682 N.pl3     1 <0>        -1.1023
     12 C7         -1.1214   -5.0587   -1.8681 C.3       1 <0>         0.1455
     13 H1         -0.5939   -5.4184   -0.9847 H         1 <0>         0.1198
     14 C8         -0.1328   -4.3551   -2.8126 C.3       1 <0>        -0.1518
     15 C9          0.7868   -5.4009   -3.4882 C.3       1 <0>        -0.5755
     16 S3         -0.2672   -6.9078   -3.5155 S.o2      1 <0>         2.3738
     17 O3          0.3438   -7.9138   -2.7194 O.2       1 <0>        -0.9263
     18 O4         -0.6217   -7.1996   -4.8603 O.2       1 <0>        -0.9296
     19 C10        -1.7482   -6.2603   -2.6314 C.3       1 <0>        -0.5878
     20 H2          3.4129   -0.7949    1.0046 H         1 <0>         0.0751
     21 H3          2.5883   -1.5202    2.4054 H         1 <0>         0.0855
     22 H4          3.3081   -2.5652    1.1572 H         1 <0>         0.0858
     23 H5          0.4507   -3.2742    1.3864 H         1 <0>         0.1521
     24 H6         -2.3563   -0.0207   -1.5139 H         1 <0>         0.1059
     25 H7         -1.2596   -0.3792   -2.8693 H         1 <0>         0.0936
     26 H8         -2.3422   -1.6450   -2.2417 H         1 <0>         0.0845
     27 H9         -2.9365   -3.9721   -2.0500 H         1 <0>         0.4243
     28 H10        -0.6875   -3.8127   -3.5783 H         1 <0>         0.0987
     29 H11         0.4754   -3.6531   -2.2423 H         1 <0>         0.1004
     30 H12         1.0452   -5.0915   -4.5009 H         1 <0>         0.1473
     31 H13         1.6846   -5.5679   -2.8930 H         1 <0>         0.1438
     32 H14        -2.1489   -7.0011   -1.9394 H         1 <0>         0.1528
     33 H15        -2.5119   -5.9262   -3.3336 H         1 <0>         0.1496
@<TRIPOS>BOND
     1    1    2 1
     2    1   20 1
     3    1   21 1
     4    1   22 1
     5    2    6 1
     6    2    3 2
     7    3    4 1
     8    3   23 1
     9    4    5 2
    10    4    8 1
    11    5    6 1
    12    5    7 1
    13    7   24 1
    14    7   25 1
    15    7   26 1
    16    8    9 2
    17    8   10 2
    18    8   11 1
    19   11   12 1
    20   11   27 1
    21   12   13 1
    22   12   19 1
    23   12   14 1
    24   14   15 1
    25   14   28 1
    26   14   29 1
    27   15   16 1
    28   15   30 1
    29   15   31 1
    30   16   17 2
    31   16   18 2
    32   16   19 1
    33   19   32 1
    34   19   33 1
@<TRIPOS>MOLECULE
ZINC51884680
   44    46     0     0     0
SMALL
USER_CHARGES

@<TRIPOS>ATOM
      1 C1          0.8538    0.4529    1.8839 C.3       1 <0>        -0.1208
      2 C2          2.1196    1.1258    1.3126 C.3       1 <0>         0.0966
      3 N1          2.4820    0.4027    0.0848 N.am      1 <0>        -0.6201
      4 C3          1.4915   -0.6648   -0.1449 C.3       1 <0>         0.1113
      5 C4          0.8998   -0.9647    1.2550 C.3       1 <0>        -0.1031
      6 H1          1.5562   -1.6233    1.8236 H         1 <0>         0.0930
      7 C5         -0.5051   -1.5598    1.1405 C.3       1 <0>         0.0867
      8 O1         -1.0311   -1.7941    2.4484 O.3       1 <0>        -0.5717
      9 C6          3.5434    0.6717   -0.7009 C.2       1 <0>         0.5353
     10 O2          3.7981   -0.0479   -1.6434 O.2       1 <0>        -0.5339
     11 C7          4.4139    1.8666   -0.4084 C.3       1 <0>        -0.1008
     12 C8          3.9278    3.0643   -1.2277 C.3       1 <0>        -0.1213
     13 C9          4.7932    4.2857   -0.9019 C.3       1 <0>         0.1142
     14 N2          6.2038    3.9378   -1.1203 N.am      1 <0>        -0.6110
     15 C10         6.7502    2.7496   -0.4507 C.3       1 <0>         0.1085
     16 C11         5.8629    1.5454   -0.7816 C.3       1 <0>        -0.1210
     17 C12         6.9817    4.6939   -1.9202 C.2       1 <0>         0.5473
     18 O3          6.5186    5.6721   -2.4676 O.2       1 <0>        -0.5387
     19 C13         8.4267    4.3238   -2.1343 C.3       1 <0>        -0.2000
     20 C14         9.4889    5.2517   -1.5412 C.3       1 <0>        -0.1505
     21 C15         9.2572    5.2219   -3.0533 C.3       1 <0>        -0.1468
     22 H2          0.9055    0.3943    2.9711 H         1 <0>         0.0885
     23 H3         -0.0427    0.9862    1.5676 H         1 <0>         0.0786
     24 H4          1.9113    2.1702    1.0799 H         1 <0>         0.0722
     25 H5          2.9328    1.0599    2.0353 H         1 <0>         0.0717
     26 H6          0.7098   -0.3179   -0.8208 H         1 <0>         0.0710
     27 H7          1.9775   -1.5526   -0.5495 H         1 <0>         0.0830
     28 H8         -1.1525   -0.8631    0.6079 H         1 <0>         0.0504
     29 H9         -0.4573   -2.5017    0.5940 H         1 <0>         0.0512
     30 H10        -1.9213   -2.1718    2.4524 H         1 <0>         0.3839
     31 H11         4.3570    2.1061    0.6535 H         1 <0>         0.0928
     32 H12         4.0078    2.8348   -2.2902 H         1 <0>         0.0773
     33 H13         2.8884    3.2779   -0.9783 H         1 <0>         0.0800
     34 H14         4.5160    5.1143   -1.5536 H         1 <0>         0.0986
     35 H15         4.6444    4.5717    0.1394 H         1 <0>         0.0715
     36 H16         7.7643    2.5645   -0.8049 H         1 <0>         0.0943
     37 H17         6.7610    2.9102    0.6273 H         1 <0>         0.0737
     38 H18         6.2009    0.6778   -0.2148 H         1 <0>         0.0810
     39 H19         5.9247    1.3302   -1.8484 H         1 <0>         0.0827
     40 H20         8.6416    3.2553   -2.1465 H         1 <0>         0.1261
     41 H21         9.1425    6.1298   -0.9962 H         1 <0>         0.0994
     42 H22        10.4028    4.7936   -1.1630 H         1 <0>         0.1059
     43 H23        10.0187    4.7442   -3.6698 H         1 <0>         0.1046
     44 H24         8.7584    6.0804   -3.5030 H         1 <0>         0.1082
@<TRIPOS>BOND
     1    1    5 1
     2    1    2 1
     3    1   22 1
     4    1   23 1
     5    2    3 1
     6    2   24 1
     7    2   25 1
     8    3    4 1
     9    3    9 am
    10    4    5 1
    11    4   26 1
    12    4   27 1
    13    5    6 1
    14    5    7 1
    15    7    8 1
    16    7   28 1
    17    7   29 1
    18    8   30 1
    19    9   10 2
    20    9   11 1
    21   11   16 1
    22   11   12 1
    23   11   31 1
    24   12   13 1
    25   12   32 1
    26   12   33 1
    27   13   14 1
    28   13   34 1
    29   13   35 1
    30   14   15 1
    31   14   17 am
    32   15   16 1
    33   15   36 1
    34   15   37 1
    35   16   38 1
    36   16   39 1
    37   17   18 2
    38   17   19 1
    39   19   21 1
    40   19   20 1
    41   19   40 1
    42   20   21 1
    43   20   41 1
    44   20   42 1
    45   21   43 1
    46   21   44 1
@<TRIPOS>MOLECULE
ZINC62747950
   32    33     0     0     0
SMALL
USER_CHARGES

@<TRIPOS>ATOM
      1 C1         -0.0231    1.5043   -0.0680 C.3       1 <0>        -0.1997
      2 C2         -0.0090   -0.0025   -0.0499 C.2       1 <0>         0.3907
      3 O1         -0.2243   -0.5987    0.9845 O.2       1 <0>        -0.4353
      4 C3          0.2649   -0.7481   -1.2825 C.ar      1 <0>        -0.2122
      5 C4          0.5197   -0.0637   -2.4781 C.ar      1 <0>        -0.0060
      6 C5          0.7759   -0.7690   -3.6308 C.ar      1 <0>        -0.1994
      7 C6          0.7833   -2.1583   -3.6158 C.ar      1 <0>         0.1751
      8 C7          0.5329   -2.8472   -2.4423 C.ar      1 <0>        -0.2630
      9 C8          0.2791   -2.1533   -1.2703 C.ar      1 <0>         0.2091
     10 O2          0.0394   -2.8269   -0.1181 O.3       1 <0>        -0.2646
     11 C9         -0.0530   -4.2502   -0.2059 C.3       1 <0>         0.0745
     12 H1         -0.5463   -4.5083   -1.1430 H         1 <0>         0.1193
     13 C10         1.3762   -4.8371   -0.2231 C.3       1 <0>        -0.6049
     14 S1          1.5798   -5.3411    1.5409 S.o2      1 <0>         2.3761
     15 O3          1.9529   -4.2086    2.3139 O.2       1 <0>        -0.9070
     16 O4          2.3607   -6.5266    1.6045 O.2       1 <0>        -0.9246
     17 C11        -0.1883   -5.7533    1.8744 C.3       1 <0>        -0.6092
     18 C12        -0.9080   -4.7533    0.9474 C.3       1 <0>         0.1122
     19 H2         -1.2285   -3.8978    1.5419 H         1 <0>         0.1047
     20 O5         -2.0694   -5.3896    0.4104 O.3       1 <0>        -0.5518
     21 F1          1.0362   -2.8407   -4.7540 F         1 <0>        -0.1265
     22 H3          0.9781    1.8796    0.1436 H         1 <0>         0.0989
     23 H4         -0.3416    1.8529   -1.0504 H         1 <0>         0.0850
     24 H5         -0.7160    1.8703    0.6896 H         1 <0>         0.0901
     25 H6          0.5147    1.0162   -2.4947 H         1 <0>         0.1546
     26 H7          0.9719   -0.2404   -4.5520 H         1 <0>         0.1477
     27 H8          0.5401   -3.9271   -2.4388 H         1 <0>         0.1513
     28 H9          1.4377   -5.6997   -0.8867 H         1 <0>         0.1582
     29 H10         2.1080   -4.0784   -0.5008 H         1 <0>         0.1537
     30 H11        -0.4109   -6.7822    1.5915 H         1 <0>         0.1542
     31 H12        -0.4427   -5.5721    2.9187 H         1 <0>         0.1530
     32 H13        -2.6712   -5.7405    1.0811 H         1 <0>         0.3959
@<TRIPOS>BOND
     1    1    2 1
     2    1   22 1
     3    1   23 1
     4    1   24 1
     5    2    3 2
     6    2    4 1
     7    4    9 ar
     8    4    5 ar
     9    5    6 ar
    10    5   25 1
    11    6    7 ar
    12    6   26 1
    13    7    8 ar
    14    7   21 1
    15    8    9 ar
    16    8   27 1
    17    9   10 1
    18   10   11 1
    19   11   12 1
    20   11   18 1
    21   11   13 1
    22   13   14 1
    23   13   28 1
    24   13   29 1
    25   14   15 2
    26   14   16 2
    27   14   17 1
    28   17   18 1
    29   17   30 1
    30   17   31 1
    31   18   19 1
    32   18   20 1
    33   20   32 1
@<TRIPOS>MOLECULE
ZINC09882695
   28    29     0     0     0
SMALL
USER_CHARGES
1-[2-(2,3,5,6-tetrafluorophenoxy)acetyl]imidazolidin-2-one
@<TRIPOS>ATOM
      1 C1          0.8457    0.4904   -4.8277 C.ar      1 <0>        -0.1342
      2 C2         -0.0927   -0.3194   -4.2111 C.ar      1 <0>         0.1077
      3 C3         -0.6133    0.0371   -2.9778 C.ar      1 <0>         0.0768
      4 C4         -0.1936    1.2073   -2.3603 C.ar      1 <0>         0.0858
      5 C5          0.7431    2.0208   -2.9827 C.ar      1 <0>         0.0769
      6 C6          1.2655    1.6580   -4.2135 C.ar      1 <0>         0.1077
      7 F1          2.1817    2.4464   -4.8169 F         1 <0>        -0.1058
      8 F2          1.1493    3.1629   -2.3862 F         1 <0>        -0.1025
      9 O1         -0.7038    1.5592   -1.1497 O.3       1 <0>        -0.2921
     10 C7         -0.0127    1.0858    0.0080 C.3       1 <0>         0.0546
     11 C8         -0.7181    1.5718    1.2479 C.2       1 <0>         0.5548
     12 O2         -1.7142    2.2559    1.1498 O.2       1 <0>        -0.4678
     13 N1         -0.2416    1.2460    2.4658 N.am      1 <0>        -0.5812
     14 C9         -0.8327    1.6536    3.7491 C.3       1 <0>         0.0824
     15 C10         0.0954    1.0172    4.8018 C.3       1 <0>         0.0893
     16 N2          1.1110    0.3187    3.9999 N.am      1 <0>        -0.7228
     17 C11         0.8424    0.4946    2.6995 C.2       1 <0>         0.6998
     18 O3          1.5229    0.0188    1.8120 O.2       1 <0>        -0.5546
     19 F3         -1.5284   -0.7540   -2.3761 F         1 <0>        -0.1025
     20 F4         -0.5008   -1.4583   -4.8125 F         1 <0>        -0.1059
     21 H1          1.2511    0.2108   -5.7889 H         1 <0>         0.1777
     22 H2          0.0021   -0.0041    0.0020 H         1 <0>         0.1088
     23 H3          1.0099    1.4631    0.0003 H         1 <0>         0.1084
     24 H4         -0.8307    2.7395    3.8435 H         1 <0>         0.1033
     25 H5         -1.8464    1.2642    3.8442 H         1 <0>         0.1033
     26 H6          0.5584    1.7872    5.4191 H         1 <0>         0.0967
     27 H7         -0.4564    0.3098    5.4208 H         1 <0>         0.0964
     28 H8          1.8549   -0.1919    4.3561 H         1 <0>         0.4393
@<TRIPOS>BOND
     1    1    6 ar
     2    1    2 ar
     3    1   21 1
     4    2    3 ar
     5    2   20 1
     6    3    4 ar
     7    3   19 1
     8    4    5 ar
     9    4    9 1
    10    5    6 ar
    11    5    8 1
    12    6    7 1
    13    9   10 1
    14   10   11 1
    15   10   22 1
    16   10   23 1
    17   11   12 2
    18   11   13 am
    19   13   17 am
    20   13   14 1
    21   14   15 1
    22   14   24 1
    23   14   25 1
    24   15   16 1
    25   15   26 1
    26   15   27 1
    27   16   17 am
    28   16   28 1
    29   17   18 2
@<TRIPOS>MOLECULE
ZINC36203582
   42    43     0     0     0
SMALL
USER_CHARGES

@<TRIPOS>ATOM
      1 C1          1.2594   -2.2629    2.5021 C.3       1 <0>        -0.1900
      2 C2          0.4495   -1.7902    1.2931 C.3       1 <0>         0.1549
      3 H1         -0.5936   -2.0816    1.4155 H         1 <0>         0.0740
      4 C3          1.0135   -2.4239    0.0176 C.3       1 <0>        -0.1282
      5 C4          0.2910   -1.8412   -1.1992 C.3       1 <0>        -0.1187
      6 C5          0.5317   -0.3312   -1.2629 C.3       1 <0>        -0.1326
      7 C6         -0.0377    0.3262   -0.0018 C.3       1 <0>         0.1156
      8 N1          0.5424   -0.3283    1.1793 N.pl3     1 <0>        -1.0014
      9 S1          1.2902    0.5639    2.3570 S.o2      1 <0>         2.7812
     10 O1          2.3287   -0.2497    2.8850 O.2       1 <0>        -0.9707
     11 O2          1.5369    1.8473    1.7991 O.2       1 <0>        -0.9764
     12 N2          0.1925    0.7816    3.5776 N.pl3     1 <0>        -1.0041
     13 C7         -0.8792    1.7787    3.4516 C.3       1 <0>         0.1232
     14 C8         -2.2242    1.0923    3.7099 C.3       1 <0>        -0.1347
     15 C9         -2.1795    0.3857    5.0666 C.3       1 <0>        -0.1081
     16 C10        -1.0861   -0.6850    5.0503 C.3       1 <0>        -0.1028
     17 H2         -1.2887   -1.3997    4.2526 H         1 <0>         0.0827
     18 C11         0.2681   -0.0230    4.8047 C.3       1 <0>         0.1184
     19 C12        -1.0647   -1.4136    6.3955 C.3       1 <0>         0.0802
     20 O3         -2.2901   -2.1277    6.5700 O.3       1 <0>        -0.5714
     21 H3          0.9484   -1.7080    3.3872 H         1 <0>         0.0621
     22 H4          1.0868   -3.3273    2.6613 H         1 <0>         0.0705
     23 H5          2.3199   -2.0902    2.3190 H         1 <0>         0.0990
     24 H6          2.0796   -2.2087   -0.0549 H         1 <0>         0.0695
     25 H7          0.8610   -3.5027    0.0491 H         1 <0>         0.0753
     26 H8          0.6733   -2.3085   -2.1067 H         1 <0>         0.0665
     27 H9         -0.7782   -2.0352   -1.1139 H         1 <0>         0.0641
     28 H10         1.6024   -0.1357   -1.3233 H         1 <0>         0.0676
     29 H11         0.0363    0.0794   -2.1426 H         1 <0>         0.0766
     30 H12         0.2178    1.3858    0.0050 H         1 <0>         0.0934
     31 H13        -1.1213    0.2094    0.0137 H         1 <0>         0.0687
     32 H14        -0.7277    2.5725    4.1831 H         1 <0>         0.0747
     33 H15        -0.8707    2.1992    2.4460 H         1 <0>         0.0823
     34 H16        -3.0186    1.8387    3.7144 H         1 <0>         0.0768
     35 H17        -2.4160    0.3609    2.9249 H         1 <0>         0.0672
     36 H18        -1.9631    1.1138    5.8484 H         1 <0>         0.0631
     37 H19        -3.1437   -0.0829    5.2639 H         1 <0>         0.0741
     38 H20         1.0334   -0.7909    4.6915 H         1 <0>         0.1015
     39 H21         0.5153    0.6206    5.6490 H         1 <0>         0.0756
     40 H22        -0.2298   -2.1141    6.4161 H         1 <0>         0.0491
     41 H23        -0.9496   -0.6874    7.2002 H         1 <0>         0.0491
     42 H24        -2.3464   -2.6144    7.4037 H         1 <0>         0.3821
@<TRIPOS>BOND
     1    1    2 1
     2    1   21 1
     3    1   22 1
     4    1   23 1
     5    2    3 1
     6    2    8 1
     7    2    4 1
     8    4    5 1
     9    4   24 1
    10    4   25 1
    11    5    6 1
    12    5   26 1
    13    5   27 1
    14    6    7 1
    15    6   28 1
    16    6   29 1
    17    7    8 1
    18    7   30 1
    19    7   31 1
    20    8    9 1
    21    9   10 2
    22    9   11 2
    23    9   12 1
    24   12   18 1
    25   12   13 1
    26   13   14 1
    27   13   32 1
    28   13   33 1
    29   14   15 1
    30   14   34 1
    31   14   35 1
    32   15   16 1
    33   15   36 1
    34   15   37 1
    35   16   17 1
    36   16   18 1
    37   16   19 1
    38   18   38 1
    39   18   39 1
    40   19   20 1
    41   19   40 1
    42   19   41 1
    43   20   42 1
@<TRIPOS>MOLECULE
ZINC44611136
   31    31     0     0     0
SMALL
USER_CHARGES

@<TRIPOS>ATOM
      1 C1         -0.0184    1.5028    0.0103 C.3       1 <0>        -0.0636
      2 C2          0.0021   -0.0041    0.0020 C.2       1 <0>         0.0506
      3 N1         -1.0131   -0.8316    0.0019 N.2       1 <0>        -0.5104
      4 C3         -0.8336   -2.1374   -0.0059 C.2       1 <0>         0.0328
      5 C4          0.4492   -2.5821   -0.0139 C.2       1 <0>        -0.1969
      6 S1          1.3350   -1.0316   -0.0168 S.3       1 <0>         0.1024
      7 C5         -1.9989   -3.0929   -0.0056 C.3       1 <0>         0.2076
      8 N2         -2.4467   -3.3165    1.3713 N.am      1 <0>        -0.6167
      9 C6         -3.4725   -2.4504    1.9576 C.3       1 <0>         0.0725
     10 C7         -1.9149   -4.3189    2.0985 C.2       1 <0>         0.6972
     11 O1         -1.0639   -5.0374    1.6121 O.2       1 <0>        -0.5229
     12 N3         -2.3269   -4.5245    3.3652 N.am      1 <0>        -0.6873
     13 C8         -1.7951   -5.5269    4.0924 C.2       1 <0>         0.5145
     14 O2         -0.9463   -6.2437    3.6072 O.2       1 <0>        -0.4399
     15 C9         -2.2558   -5.7568    5.5088 C.3       1 <0>        -0.0266
     16 H1         -2.8049   -4.8827    5.8587 H         1 <0>         0.1212
     17 C10        -1.0407   -5.9898    6.4088 C.3       1 <0>        -0.1515
     18 Cl1        -3.3307   -7.2034    5.5638 Cl        1 <0>        -0.1286
     19 H2          1.0042    1.8801    0.0026 H         1 <0>         0.0843
     20 H3         -0.5455    1.8639   -0.8728 H         1 <0>         0.0911
     21 H4         -0.5286    1.8543    0.9071 H         1 <0>         0.0896
     22 H5          0.8286   -3.5932   -0.0206 H         1 <0>         0.1989
     23 H6         -2.8162   -2.6694   -0.5892 H         1 <0>         0.0997
     24 H7         -1.6912   -4.0413   -0.4460 H         1 <0>         0.1054
     25 H8         -4.4587   -2.8713    1.7619 H         1 <0>         0.0653
     26 H9         -3.3153   -2.3783    3.0338 H         1 <0>         0.0632
     27 H10        -3.4066   -1.4571    1.5135 H         1 <0>         0.0886
     28 H11        -3.0061   -3.9510    3.7534 H         1 <0>         0.4108
     29 H12        -0.3909   -5.1153    6.3755 H         1 <0>         0.0789
     30 H13        -1.3738   -6.1561    7.4332 H         1 <0>         0.0853
     31 H14        -0.4916   -6.8640    6.0589 H         1 <0>         0.0845
@<TRIPOS>BOND
     1    1    2 1
     2    1   19 1
     3    1   20 1
     4    1   21 1
     5    2    6 1
     6    2    3 2
     7    3    4 1
     8    4    5 2
     9    4    7 1
    10    5    6 1
    11    5   22 1
    12    7    8 1
    13    7   23 1
    14    7   24 1
    15    8    9 1
    16    8   10 am
    17    9   25 1
    18    9   26 1
    19    9   27 1
    20   10   11 2
    21   10   12 am
    22   12   13 am
    23   12   28 1
    24   13   14 2
    25   13   15 1
    26   15   16 1
    27   15   17 1
    28   15   18 1
    29   17   29 1
    30   17   30 1
    31   17   31 1
@<TRIPOS>MOLECULE
ZINC55392438
   45    47     0     0     0
SMALL
USER_CHARGES

@<TRIPOS>ATOM
      1 C1         -0.0184    1.5028    0.0103 C.3       1 <0>        -0.0725
      2 C2          0.0021   -0.0041    0.0020 C.2       1 <0>        -0.0235
      3 C3         -1.0808   -0.8064    0.0027 C.2       1 <0>        -0.1822
      4 C4         -0.6021   -2.1289   -0.0066 C.2       1 <0>        -0.1886
      5 C5          0.7452   -2.0645   -0.0115 C.2       1 <0>        -0.0053
      6 O1          1.1042   -0.7752   -0.0131 O.3       1 <0>        -0.1679
      7 C6          1.6459   -3.2756   -0.0186 C.3       1 <0>        -0.0289
      8 C7          0.8184   -4.4975    0.3980 C.3       1 <0>        -0.0527
      9 C8         -0.4663   -4.5536   -0.4333 C.3       1 <0>        -0.1179
     10 C9         -1.3965   -3.4088   -0.0121 C.3       1 <0>         0.2196
     11 H1         -1.7879   -3.6022    0.9867 H         1 <0>         0.1011
     12 N1         -2.5045   -3.2978   -0.9641 N.am      1 <0>        -0.7215
     13 C10        -3.6669   -2.7325   -0.5824 C.2       1 <0>         0.5004
     14 O2         -3.7956   -2.3156    0.5492 O.2       1 <0>        -0.5000
     15 C11        -4.8066   -2.6183   -1.5617 C.3       1 <0>         0.1175
     16 N2         -5.9483   -1.9727   -0.9091 N.pl3     1 <0>        -0.3657
     17 C12        -6.5965   -0.8736   -1.3483 C.2       1 <0>         0.0490
     18 C13        -7.5863   -0.5989   -0.4675 C.2       1 <0>        -0.2350
     19 C14        -7.5415   -1.5632    0.5447 C.2       1 <0>         0.0461
     20 N3         -6.5638   -2.3907    0.2778 N.2       1 <0>        -0.2655
     21 C15        -8.5637    0.5444   -0.5602 C.3       1 <0>        -0.0732
     22 C16         0.4611   -4.3893    1.8817 C.3       1 <0>        -0.1528
     23 C17         1.6343   -5.7701    0.1619 C.3       1 <0>        -0.1416
     24 H2          1.0042    1.8801    0.0026 H         1 <0>         0.0754
     25 H3         -0.5455    1.8639   -0.8728 H         1 <0>         0.0832
     26 H4         -0.5286    1.8543    0.9071 H         1 <0>         0.0845
     27 H5         -2.1147   -0.4945    0.0091 H         1 <0>         0.1426
     28 H6          2.0473   -3.4285   -1.0204 H         1 <0>         0.0884
     29 H7          2.4639   -3.1286    0.6866 H         1 <0>         0.0869
     30 H8         -0.2200   -4.4518   -1.4903 H         1 <0>         0.0742
     31 H9         -0.9658   -5.5079   -0.2666 H         1 <0>         0.0802
     32 H10        -2.4015   -3.6313   -1.8691 H         1 <0>         0.4006
     33 H11        -4.4918   -2.0211   -2.4175 H         1 <0>         0.1237
     34 H12        -5.0962   -3.6133   -1.8997 H         1 <0>         0.1140
     35 H13        -6.3663   -0.3134   -2.2425 H         1 <0>         0.1719
     36 H14        -8.2028   -1.6181    1.3968 H         1 <0>         0.1823
     37 H15        -9.4429    0.2262   -1.1205 H         1 <0>         0.0610
     38 H16        -8.8627    0.8490    0.4427 H         1 <0>         0.0638
     39 H17        -8.0925    1.3848   -1.0699 H         1 <0>         0.0593
     40 H18        -0.1197   -3.4824    2.0504 H         1 <0>         0.0627
     41 H19        -0.1271   -5.2578    2.1780 H         1 <0>         0.0613
     42 H20         1.3755   -4.3506    2.4738 H         1 <0>         0.0601
     43 H21         2.5483   -5.7309    0.7546 H         1 <0>         0.0623
     44 H22         1.0463   -6.6388    0.4580 H         1 <0>         0.0633
     45 H23         1.8896   -5.8472   -0.8950 H         1 <0>         0.0596
@<TRIPOS>BOND
     1    1    2 1
     2    1   24 1
     3    1   25 1
     4    1   26 1
     5    2    6 1
     6    2    3 2
     7    3    4 1
     8    3   27 1
     9    4   10 1
    10    4    5 2
    11    5    6 1
    12    5    7 1
    13    7    8 1
    14    7   28 1
    15    7   29 1
    16    8    9 1
    17    8   22 1
    18    8   23 1
    19    9   10 1
    20    9   30 1
    21    9   31 1
    22   10   11 1
    23   10   12 1
    24   12   13 am
    25   12   32 1
    26   13   14 2
    27   13   15 1
    28   15   16 1
    29   15   33 1
    30   15   34 1
    31   16   20 1
    32   16   17 1
    33   17   18 2
    34   17   35 1
    35   18   19 1
    36   18   21 1
    37   19   20 2
    38   19   36 1
    39   21   37 1
    40   21   38 1
    41   21   39 1
    42   22   40 1
    43   22   41 1
    44   22   42 1
    45   23   43 1
    46   23   44 1
    47   23   45 1
@<TRIPOS>MOLECULE
ZINC62344531
   34    36     0     0     0
SMALL
USER_CHARGES

@<TRIPOS>ATOM
      1 C1         -0.0167    1.3794    0.0096 C.ar      1 <0>        -0.0731
      2 C2          1.1681    2.0903    0.0021 C.ar      1 <0>        -0.0972
      3 C3          2.3775    1.4141   -0.0130 C.ar      1 <0>         0.0785
      4 C4          2.3975    0.0192   -0.0206 C.ar      1 <0>         0.0374
      5 C5          1.2042   -0.6851   -0.0130 C.ar      1 <0>        -0.0606
      6 C6          0.0021   -0.0041    0.0020 C.ar      1 <0>        -0.0901
      7 C7         -1.2947   -0.7717    0.0102 C.3       1 <0>         0.0443
      8 H1         -1.0851   -1.8382    0.0921 H         1 <0>         0.1098
      9 C8         -2.0565   -0.4999   -1.2885 C.3       1 <0>         0.0536
     10 N1         -3.3206   -1.2482   -1.2805 N.3       1 <0>        -0.5295
     11 C9         -3.0754   -2.6971   -1.3233 C.3       1 <0>         0.0117
     12 C10        -4.4134   -3.4379   -1.2531 C.3       1 <0>         0.0639
     13 O1         -5.2525   -2.9989   -2.3249 O.3       1 <0>        -0.3848
     14 C11        -5.5125   -1.5926   -2.3135 C.3       1 <0>         0.0633
     15 C12        -4.1856   -0.8331   -2.3944 C.3       1 <0>         0.0196
     16 Cl1        -2.2953   -0.2463    1.4151 Cl        1 <0>        -0.1456
     17 O2          3.6975   -0.3645   -0.0358 O.3       1 <0>        -0.2337
     18 C13         4.4794    0.7265   -0.0379 C.2       1 <0>         0.6398
     19 O3          5.6953    0.7190   -0.0498 O.2       1 <0>        -0.4799
     20 N2          3.7081    1.8317   -0.0242 N.am      1 <0>        -0.6472
     21 H2          4.0212    2.7498   -0.0225 H         1 <0>         0.4457
     22 H3         -0.9600    1.9051    0.0260 H         1 <0>         0.1452
     23 H4          1.1516    3.1702    0.0077 H         1 <0>         0.1429
     24 H5          1.2137   -1.7650   -0.0185 H         1 <0>         0.1452
     25 H6         -2.2661    0.5666   -1.3703 H         1 <0>         0.0928
     26 H7         -1.4516   -0.8175   -2.1378 H         1 <0>         0.0576
     27 H8         -2.5661   -2.9528   -2.2525 H         1 <0>         0.0460
     28 H9         -2.4544   -2.9864   -0.4755 H         1 <0>         0.0870
     29 H10        -4.2407   -4.5105   -1.3421 H         1 <0>         0.0991
     30 H11        -4.8981   -3.2244   -0.3005 H         1 <0>         0.0626
     31 H12        -6.1346   -1.3306   -3.1693 H         1 <0>         0.0993
     32 H13        -6.0292   -1.3255   -1.3917 H         1 <0>         0.0622
     33 H14        -4.3750    0.2383   -2.3285 H         1 <0>         0.0891
     34 H15        -3.6941   -1.0590   -3.3407 H         1 <0>         0.0450
@<TRIPOS>BOND
     1    1    6 ar
     2    1    2 ar
     3    1   22 1
     4    2    3 ar
     5    2   23 1
     6    3   20 1
     7    3    4 ar
     8    4    5 ar
     9    4   17 1
    10    5    6 ar
    11    5   24 1
    12    6    7 1
    13    7    8 1
    14    7    9 1
    15    7   16 1
    16    9   10 1
    17    9   25 1
    18    9   26 1
    19   10   15 1
    20   10   11 1
    21   11   12 1
    22   11   27 1
    23   11   28 1
    24   12   13 1
    25   12   29 1
    26   12   30 1
    27   13   14 1
    28   14   15 1
    29   14   31 1
    30   14   32 1
    31   15   33 1
    32   15   34 1
    33   17   18 1
    34   18   19 2
    35   18   20 am
    36   20   21 1
@<TRIPOS>MOLECULE
ZINC33628403
   58    61     0     0     0
SMALL
USER_CHARGES
allyl-imino-oxo-N-[2-(1-piperidyl)ethyl]BLAHcarboxamide
@<TRIPOS>ATOM
      1 C1         -1.6635   -2.4956   -1.8397 C.2       1 <0>        -0.1073
      2 C2         -1.5290   -1.2559   -1.4382 C.2       1 <0>        -0.2323
      3 C3         -1.1260   -0.9641   -0.0157 C.3       1 <0>         0.1098
      4 N1          0.0656   -0.1118   -0.0109 N.ar      1 <0>        -0.4753
      5 C4         -0.0747    1.2593   -0.0111 C.ar      1 <0>         0.5766
      6 N2         -1.2679    1.7982   -0.0210 N.pl3     1 <0>        -0.7566
      7 C5          1.1223    2.1144   -0.0062 C.ar      1 <0>        -0.3044
      8 C6          2.3763    1.5187   -0.0019 C.ar      1 <0>         0.1573
      9 C7          2.4746    0.1199   -0.0023 C.ar      1 <0>        -0.3456
     10 C8          1.3132   -0.6857   -0.0066 C.ar      1 <0>         0.5059
     11 N3          1.4392   -2.0063   -0.0070 N.2       1 <0>        -0.5647
     12 C9          2.6352   -2.5954   -0.0034 C.2       1 <0>         0.4517
     13 C10         2.7029   -4.0007   -0.0041 C.2       1 <0>        -0.1430
     14 C11         3.9196   -4.6155   -0.0010 C.2       1 <0>         0.0211
     15 C12         5.0866   -3.8393    0.0025 C.2       1 <0>        -0.1439
     16 C13         5.0030   -2.4899    0.0031 C.2       1 <0>         0.1138
     17 N4          3.7913   -1.8658    0.0004 N.am      1 <0>        -0.4358
     18 C14         3.7438   -0.5152    0.0011 C.2       1 <0>         0.5622
     19 O1          4.7686    0.1431    0.0042 O.2       1 <0>        -0.4675
     20 C15         0.9928    3.5759   -0.0064 C.2       1 <0>         0.6059
     21 O2         -0.1059    4.0894    0.0955 O.2       1 <0>        -0.5390
     22 N5          2.0905    4.3497   -0.1194 N.am      1 <0>        -0.7289
     23 C16         1.9612    5.8090   -0.1196 C.3       1 <0>         0.0960
     24 C17         3.3463    6.4437   -0.2593 C.3       1 <0>        -0.0211
     25 N6          3.2166    7.9070   -0.2595 N.4       1 <0>        -0.3947
     26 C18         2.4922    8.3709   -1.4496 C.3       1 <0>        -0.0111
     27 C19         2.2491    9.8782   -1.3451 C.3       1 <0>        -0.1472
     28 C20         3.5943   10.6005   -1.2295 C.3       1 <0>        -0.1427
     29 C21         4.3493   10.0646   -0.0100 C.3       1 <0>        -0.1479
     30 C22         4.5316    8.5519   -0.1532 C.3       1 <0>        -0.0030
     31 H1         -1.9577   -2.7086   -2.8780 H         1 <0>         0.1194
     32 H2         -1.4823   -3.3236   -1.1385 H         1 <0>         0.1156
     33 H3         -1.7102   -0.4279   -2.1394 H         1 <0>         0.1208
     34 H4         -1.9488   -0.4471    0.4998 H         1 <0>         0.1094
     35 H5         -0.9038   -1.9081    0.5035 H         1 <0>         0.1387
     36 H6         -1.3771    2.8928   -0.0211 H         1 <0>         0.4816
     37 H7          3.2685    2.1274    0.0017 H         1 <0>         0.1665
     38 H8          1.7969   -4.5885   -0.0075 H         1 <0>         0.1847
     39 H9          3.9839   -5.6936   -0.0016 H         1 <0>         0.1761
     40 H10         6.0538   -4.3198    0.0050 H         1 <0>         0.1820
     41 H11         5.9073   -1.8993    0.0055 H         1 <0>         0.2003
     42 H12         3.0835    3.8855   -0.2115 H         1 <0>         0.4361
     43 H13         1.3281    6.1209   -0.9634 H         1 <0>         0.0968
     44 H14         1.5013    6.1365    0.8245 H         1 <0>         0.0980
     45 H15         3.9793    6.1318    0.5845 H         1 <0>         0.1411
     46 H16         3.8062    6.1162   -1.2034 H         1 <0>         0.1367
     47 H17         3.0893    8.1577   -2.3485 H         1 <0>         0.1288
     48 H18         1.5268    7.8481   -1.5182 H         1 <0>         0.1304
     49 H19         1.7195   10.2273   -2.2438 H         1 <0>         0.1147
     50 H20         1.6393   10.0904   -0.4545 H         1 <0>         0.0901
     51 H21         4.1864   10.4207   -2.1390 H         1 <0>         0.0823
     52 H22         3.4217   11.6805   -1.1119 H         1 <0>         0.0976
     53 H23         5.3344   10.5500    0.0538 H         1 <0>         0.1159
     54 H24         3.7739   10.2816    0.9020 H         1 <0>         0.0902
     55 H25         5.0611    8.1618    0.7285 H         1 <0>         0.1328
     56 H26         5.1192    8.3379   -1.0582 H         1 <0>         0.1284
     57 H27        -2.1612    1.1564   -0.0292 H         1 <0>         0.4524
     58 H28         2.6291    8.1962    0.6244 H         1 <0>         0.4440
@<TRIPOS>BOND
     1    1    2 2
     2    1   31 1
     3    1   32 1
     4    2    3 1
     5    2   33 1
     6    3    4 1
     7    3   34 1
     8    3   35 1
     9    4   10 ar
    10    4    5 ar
    11    5    6 1
    12    5    7 ar
    13    6   36 1
    14    6   57 1
    15    7    8 ar
    16    7   20 1
    17    8    9 ar
    18    8   37 1
    19    9   18 1
    20    9   10 ar
    21   10   11 1
    22   11   12 2
    23   12   17 1
    24   12   13 1
    25   13   14 2
    26   13   38 1
    27   14   15 1
    28   14   39 1
    29   15   16 2
    30   15   40 1
    31   16   17 1
    32   16   41 1
    33   17   18 am
    34   18   19 2
    35   20   21 2
    36   20   22 am
    37   22   23 1
    38   22   42 1
    39   23   24 1
    40   23   43 1
    41   23   44 1
    42   24   25 1
    43   24   45 1
    44   24   46 1
    45   25   30 1
    46   25   26 1
    47   25   58 1
    48   26   27 1
    49   26   47 1
    50   26   48 1
    51   27   28 1
    52   27   49 1
    53   27   50 1
    54   28   29 1
    55   28   51 1
    56   28   52 1
    57   29   30 1
    58   29   53 1
    59   29   54 1
    60   30   55 1
    61   30   56 1
@<TRIPOS>MOLECULE
ZINC39689644
   58    60     0     0     0
SMALL
USER_CHARGES

@<TRIPOS>ATOM
      1 C1         -0.2375    1.5400   -0.1487 C.3       1 <0>        -0.1433
      2 C2         -0.1759    0.0113   -0.1372 C.3       1 <0>        -0.1400
      3 C3         -1.5708   -0.5468   -0.0205 C.2       1 <0>         0.5380
      4 O1         -2.5208    0.2041    0.0469 O.2       1 <0>        -0.5220
      5 N1         -1.7627   -1.8805    0.0090 N.am      1 <0>        -0.6282
      6 C4         -0.7363   -2.9475   -0.0546 C.3       1 <0>         0.1099
      7 C5         -1.2261   -4.0204    0.9436 C.3       1 <0>        -0.1131
      8 H1         -0.7540   -3.8781    1.9157 H         1 <0>         0.1129
      9 C6         -2.7439   -3.7959    1.0475 C.3       1 <0>        -0.0725
     10 C7         -3.0479   -2.6114    0.1188 C.3       1 <0>         0.1044
     11 C8         -3.1295   -3.4464    2.4817 C.3       1 <0>        -0.1321
     12 C9         -4.6495   -3.2839    2.5714 C.3       1 <0>        -0.0133
     13 N2         -5.3020   -4.5324    2.1584 N.4       1 <0>        -0.5039
     14 C10        -5.0007   -4.8127    0.7494 C.3       1 <0>        -0.0096
     15 C11        -3.4955   -5.0395    0.5825 C.3       1 <0>        -0.1431
     16 C12        -0.9324   -5.4011    0.4160 C.2       1 <0>         0.5245
     17 O2         -0.9200   -5.6033   -0.7798 O.2       1 <0>        -0.5087
     18 N3         -0.6836   -6.4112    1.2729 N.am      1 <0>        -0.7343
     19 C13        -0.3981   -7.7534    0.7599 C.3       1 <0>         0.1263
     20 C14        -0.1535   -8.7060    1.9319 C.3       1 <0>        -0.1261
     21 H2          0.6267   -8.3175    2.5865 H         1 <0>         0.1165
     22 C15        -1.4600   -8.9481    2.7220 C.3       1 <0>        -0.1426
     23 C16        -1.4398  -10.4447    3.0839 C.3       1 <0>        -0.0096
     24 N4         -0.1769  -11.0024    2.5531 N.4       1 <0>        -0.3952
     25 C17         0.2145  -10.1215    1.4205 C.3       1 <0>         0.0007
     26 C18        -0.3900  -12.3759    2.0778 C.3       1 <0>        -0.0448
     27 H3          0.7715    1.9437   -0.2331 H         1 <0>         0.0700
     28 H4         -0.8344    1.8733   -0.9976 H         1 <0>         0.0654
     29 H5         -0.6935    1.8922    0.7766 H         1 <0>         0.0635
     30 H6          0.2801   -0.3408   -1.0625 H         1 <0>         0.0980
     31 H7          0.4210   -0.3219    0.7117 H         1 <0>         0.0948
     32 H8         -0.6809   -3.3620   -1.0612 H         1 <0>         0.0996
     33 H9          0.2351   -2.5591    0.2514 H         1 <0>         0.0963
     34 H10        -3.8132   -1.9715    0.5579 H         1 <0>         0.0905
     35 H11        -3.3664   -2.9703   -0.8599 H         1 <0>         0.0839
     36 H12        -2.8089   -4.2457    3.1498 H         1 <0>         0.0930
     37 H13        -2.6461   -2.5133    2.7713 H         1 <0>         0.1197
     38 H14        -4.9298   -3.0503    3.5985 H         1 <0>         0.1422
     39 H15        -4.9675   -2.4737    1.9153 H         1 <0>         0.1368
     40 H16        -4.9647   -5.2919    2.7306 H         1 <0>         0.4239
     41 H17        -5.5397   -5.7059    0.4336 H         1 <0>         0.1393
     42 H18        -5.3105   -3.9663    0.1365 H         1 <0>         0.1363
     43 H19        -3.2703   -5.2296   -0.4669 H         1 <0>         0.1259
     44 H20        -3.1879   -5.8961    1.1823 H         1 <0>         0.0903
     45 H21        -0.6935   -6.2494    2.2292 H         1 <0>         0.4031
     46 H22        -1.2473   -8.1072    0.1753 H         1 <0>         0.0826
     47 H23         0.4893   -7.7197    0.1278 H         1 <0>         0.0882
     48 H24        -1.4732   -8.3402    3.6267 H         1 <0>         0.1050
     49 H25        -2.3259   -8.7209    2.1001 H         1 <0>         0.1024
     50 H26        -1.4728  -10.5654    4.1667 H         1 <0>         0.1351
     51 H27        -2.2902  -10.9492    2.6253 H         1 <0>         0.1330
     52 H28        -0.3587  -10.3686    0.5269 H         1 <0>         0.1393
     53 H29         1.2843  -10.1937    1.2248 H         1 <0>         0.1445
     54 H30        -1.1581  -12.3778    1.3044 H         1 <0>         0.1228
     55 H31         0.5407  -12.7666    1.6664 H         1 <0>         0.1275
     56 H32        -0.7107  -13.0027    2.9099 H         1 <0>         0.1268
     57 H33         0.5372  -10.9862    3.2657 H         1 <0>         0.4322
     58 H34        -6.3001   -4.4436    2.2763 H         1 <0>         0.4372
@<TRIPOS>BOND
     1    1    2 1
     2    1   27 1
     3    1   28 1
     4    1   29 1
     5    2    3 1
     6    2   30 1
     7    2   31 1
     8    3    4 2
     9    3    5 am
    10    5   10 1
    11    5    6 1
    12    6    7 1
    13    6   32 1
    14    6   33 1
    15    7    8 1
    16    7    9 1
    17    7   16 1
    18    9   15 1
    19    9   10 1
    20    9   11 1
    21   10   34 1
    22   10   35 1
    23   11   12 1
    24   11   36 1
    25   11   37 1
    26   12   13 1
    27   12   38 1
    28   12   39 1
    29   13   14 1
    30   13   40 1
    31   13   58 1
    32   14   15 1
    33   14   41 1
    34   14   42 1
    35   15   43 1
    36   15   44 1
    37   16   17 2
    38   16   18 am
    39   18   19 1
    40   18   45 1
    41   19   20 1
    42   19   46 1
    43   19   47 1
    44   20   21 1
    45   20   25 1
    46   20   22 1
    47   22   23 1
    48   22   48 1
    49   22   49 1
    50   23   24 1
    51   23   50 1
    52   23   51 1
    53   24   25 1
    54   24   26 1
    55   24   57 1
    56   25   52 1
    57   25   53 1
    58   26   54 1
    59   26   55 1
    60   26   56 1
@<TRIPOS>MOLECULE
ZINC43800654
   47    48     0     0     0
SMALL
USER_CHARGES

@<TRIPOS>ATOM
      1 C1         -0.0178    1.4648    0.0101 C.3       1 <0>        -0.0467
      2 N1          0.0021   -0.0041    0.0020 N.4       1 <0>        -0.3889
      3 C2          0.6881   -0.4775   -1.2074 C.3       1 <0>        -0.0030
      4 C3          0.6925   -2.0076   -1.2257 C.3       1 <0>         0.0247
      5 N2          1.3783   -2.5070   -0.0254 N.3       1 <0>        -0.5397
      6 C4          0.7172   -2.0206    1.1938 C.3       1 <0>         0.0198
      7 C5          0.7125   -0.4904    1.1921 C.3       1 <0>        -0.0027
      8 C6          1.4533   -3.9741   -0.0341 C.3       1 <0>         0.0553
      9 C7          2.3808   -4.4439    1.0884 C.3       1 <0>        -0.1298
     10 C8          2.4590   -5.9719    1.0794 C.3       1 <0>         0.1168
     11 N3          3.3471   -6.4217    2.1542 N.am      1 <0>        -0.7258
     12 C9          3.5687   -7.7383    2.3386 C.2       1 <0>         0.5179
     13 O1          3.0329   -8.5506    1.6147 O.2       1 <0>        -0.4789
     14 C10         4.4823   -8.2010    3.4442 C.3       1 <0>         0.0511
     15 H1          4.1416   -7.7892    4.3942 H         1 <0>         0.1138
     16 C11         5.9089   -7.7233    3.1621 C.3       1 <0>        -0.0367
     17 N4          6.8074   -8.2249    4.2110 N.4       1 <0>        -0.5033
     18 C12         6.7745   -9.6939    4.2212 C.3       1 <0>        -0.0478
     19 C13         5.3463  -10.1680    4.5014 C.3       1 <0>         0.0335
     20 O2          4.4668   -9.6298    3.5100 O.3       1 <0>        -0.3277
     21 H2          1.0047    1.8421    0.0024 H         1 <0>         0.1236
     22 H3         -0.5450    1.8259   -0.8730 H         1 <0>         0.1265
     23 H4         -0.5280    1.8163    0.9069 H         1 <0>         0.1256
     24 H5          0.1675   -0.1052   -2.0897 H         1 <0>         0.1387
     25 H6          1.7147   -0.1111   -1.2098 H         1 <0>         0.1381
     26 H7         -0.3339   -2.3742   -1.2371 H         1 <0>         0.0639
     27 H8          1.2146   -2.3592   -2.1156 H         1 <0>         0.1258
     28 H9         -0.3088   -2.3874    1.2222 H         1 <0>         0.0630
     29 H10         1.2573   -2.3817    2.0691 H         1 <0>         0.1220
     30 H11         1.7390   -0.1239    1.1774 H         1 <0>         0.1370
     31 H12         0.2100   -0.1276    2.0887 H         1 <0>         0.1365
     32 H13         0.4575   -4.3897    0.1196 H         1 <0>         0.0539
     33 H14         1.8441   -4.3122   -0.9938 H         1 <0>         0.0952
     34 H15         3.3767   -4.0282    0.9348 H         1 <0>         0.0851
     35 H16         1.9900   -4.1057    2.0481 H         1 <0>         0.0728
     36 H17         1.4632   -6.3875    1.2330 H         1 <0>         0.0777
     37 H18         2.8498   -6.3100    0.1197 H         1 <0>         0.0804
     38 H19         3.7756   -5.7720    2.7332 H         1 <0>         0.4010
     39 H20         6.2342   -8.1018    2.1931 H         1 <0>         0.1493
     40 H21         5.9324   -6.6336    3.1537 H         1 <0>         0.1479
     41 H22         7.7483   -7.9107    4.0266 H         1 <0>         0.4414
     42 H23         7.0995  -10.0717    3.2518 H         1 <0>         0.1455
     43 H24         7.4406  -10.0671    4.9991 H         1 <0>         0.1535
     44 H25         5.3108  -11.2569    4.4668 H         1 <0>         0.1520
     45 H26         5.0355   -9.8242    5.4879 H         1 <0>         0.0873
     46 H27         6.5055   -7.8754    5.1081 H         1 <0>         0.4306
     47 H28        -0.9446   -0.3531    0.0097 H         1 <0>         0.4237
@<TRIPOS>BOND
     1    1    2 1
     2    1   21 1
     3    1   22 1
     4    1   23 1
     5    2    7 1
     6    2    3 1
     7    2   47 1
     8    3    4 1
     9    3   24 1
    10    3   25 1
    11    4    5 1
    12    4   26 1
    13    4   27 1
    14    5    6 1
    15    5    8 1
    16    6    7 1
    17    6   28 1
    18    6   29 1
    19    7   30 1
    20    7   31 1
    21    8    9 1
    22    8   32 1
    23    8   33 1
    24    9   10 1
    25    9   34 1
    26    9   35 1
    27   10   11 1
    28   10   36 1
    29   10   37 1
    30   11   12 am
    31   11   38 1
    32   12   13 2
    33   12   14 1
    34   14   15 1
    35   14   20 1
    36   14   16 1
    37   16   17 1
    38   16   39 1
    39   16   40 1
    40   17   18 1
    41   17   41 1
    42   17   46 1
    43   18   19 1
    44   18   42 1
    45   18   43 1
    46   19   20 1
    47   19   44 1
    48   19   45 1
@<TRIPOS>MOLECULE
ZINC57847091
   50    52     0     0     0
SMALL
USER_CHARGES

@<TRIPOS>ATOM
      1 C1          1.2688   -0.5225    0.3884 C.3       1 <0>        -0.1304
      2 C2         -0.0528    0.0810   -0.0118 C.2       1 <0>        -0.1976
      3 C3         -0.1339    1.3605   -0.2810 C.2       1 <0>        -0.1135
      4 C4         -1.2812   -0.7873   -0.1024 C.3       1 <0>         0.0336
      5 N1         -1.8670   -0.9479    1.2351 N.4       1 <0>        -0.3851
      6 C5         -2.3540    0.3517    1.7132 C.3       1 <0>        -0.0097
      7 C6         -2.8815    0.2068    3.1435 C.3       1 <0>        -0.1413
      8 C7         -4.0093   -0.8205    3.1629 C.3       1 <0>         0.1115
      9 C8         -3.5320   -2.1454    2.5761 C.3       1 <0>        -0.1432
     10 C9         -2.9781   -1.9049    1.1689 C.3       1 <0>        -0.0042
     11 C10        -4.5203   -1.0187    4.5707 C.2       1 <0>         0.5359
     12 O1         -3.8959   -1.4220    5.5284 O.2       1 <0>        -0.4299
     13 N2         -5.8183   -0.6517    4.5371 N.am      1 <0>        -0.5738
     14 C11        -6.1869   -0.2545    3.3128 C.2       1 <0>         0.7077
     15 O2         -7.3079    0.1229    3.0335 O.2       1 <0>        -0.5199
     16 N3         -5.1756   -0.3200    2.4254 N.am      1 <0>        -0.7207
     17 C12        -6.7135   -0.6846    5.6964 C.3       1 <0>         0.1402
     18 C13        -7.8957   -1.6133    5.4043 C.3       1 <0>        -0.1674
     19 C14        -8.8666   -1.5813    6.5866 C.3       1 <0>        -0.0006
     20 N4         -9.3559   -0.2119    6.7857 N.4       1 <0>        -0.5081
     21 C15        -8.2368    0.6708    7.1368 C.3       1 <0>        -0.0005
     22 C16        -7.2417    0.7255    5.9757 C.3       1 <0>        -0.1674
     23 H1          2.0513    0.2322    0.3105 H         1 <0>         0.0832
     24 H2          1.2089   -0.8789    1.4168 H         1 <0>         0.0673
     25 H3          1.5020   -1.3573   -0.2725 H         1 <0>         0.0800
     26 H4         -1.0810    1.7930   -0.5678 H         1 <0>         0.1111
     27 H5          0.7464    1.9828   -0.2161 H         1 <0>         0.1267
     28 H6         -2.0095   -0.3186   -0.7642 H         1 <0>         0.1344
     29 H7         -1.0066   -1.7650   -0.4985 H         1 <0>         0.1420
     30 H8         -1.5371    1.0732    1.6989 H         1 <0>         0.1467
     31 H9         -3.1570    0.6999    1.0636 H         1 <0>         0.1304
     32 H10        -2.0749   -0.1259    3.7968 H         1 <0>         0.1200
     33 H11        -3.2591    1.1683    3.4913 H         1 <0>         0.1253
     34 H12        -2.7488   -2.5626    3.2091 H         1 <0>         0.1206
     35 H13        -4.3683   -2.8425    2.5238 H         1 <0>         0.1264
     36 H14        -3.7662   -1.5028    0.5323 H         1 <0>         0.1312
     37 H15        -2.6213   -2.8473    0.7533 H         1 <0>         0.1492
     38 H16        -5.2111   -0.0837    1.4853 H         1 <0>         0.4440
     39 H17        -6.1688   -1.0489    6.5673 H         1 <0>         0.1273
     40 H18        -8.4084   -1.2773    4.5030 H         1 <0>         0.1103
     41 H19        -7.5321   -2.6306    5.2593 H         1 <0>         0.1175
     42 H20        -9.7093   -2.2417    6.3820 H         1 <0>         0.1447
     43 H21        -8.3529   -1.9177    7.4872 H         1 <0>         0.1372
     44 H22        -9.7881    0.1167    5.9352 H         1 <0>         0.4325
     45 H23        -8.6147    1.6731    7.3384 H         1 <0>         0.1447
     46 H24        -7.7366    0.2864    8.0257 H         1 <0>         0.1372
     47 H25        -6.4107    1.3799    6.2390 H         1 <0>         0.1175
     48 H26        -7.7409    1.1100    5.0863 H         1 <0>         0.1099
     49 H27       -10.0359   -0.2038    7.5311 H         1 <0>         0.4394
     50 H28        -1.1634   -1.2947    1.8697 H         1 <0>         0.4279
@<TRIPOS>BOND
     1    1    2 1
     2    1   23 1
     3    1   24 1
     4    1   25 1
     5    2    3 2
     6    2    4 1
     7    3   26 1
     8    3   27 1
     9    4    5 1
    10    4   28 1
    11    4   29 1
    12    5   10 1
    13    5    6 1
    14    5   50 1
    15    6    7 1
    16    6   30 1
    17    6   31 1
    18    7    8 1
    19    7   32 1
    20    7   33 1
    21    8   16 1
    22    8    9 1
    23    8   11 1
    24    9   10 1
    25    9   34 1
    26    9   35 1
    27   10   36 1
    28   10   37 1
    29   11   12 2
    30   11   13 am
    31   13   14 am
    32   13   17 1
    33   14   15 2
    34   14   16 am
    35   16   38 1
    36   17   22 1
    37   17   18 1
    38   17   39 1
    39   18   19 1
    40   18   40 1
    41   18   41 1
    42   19   20 1
    43   19   42 1
    44   19   43 1
    45   20   21 1
    46   20   44 1
    47   20   49 1
    48   21   22 1
    49   21   45 1
    50   21   46 1
    51   22   47 1
    52   22   48 1
@<TRIPOS>MOLECULE
ZINC63743174
   30    32     0     0     0
SMALL
USER_CHARGES

@<TRIPOS>ATOM
      1 C1         -0.0162    1.3469    0.0094 C.ar      1 <0>        -0.0165
      2 C2          1.1688    2.1007    0.0022 C.ar      1 <0>         0.1377
      3 C3          2.3977    1.5330   -0.0130 C.ar      1 <0>        -0.2045
      4 C4          2.5361    0.1269   -0.0219 C.ar      1 <0>         0.3787
      5 N1          3.7388   -0.4222   -0.0363 N.am      1 <0>        -0.5191
      6 C5          3.9034   -1.7467   -0.0451 C.2       1 <0>         0.5040
      7 O1          5.0186   -2.2284   -0.0579 O.2       1 <0>        -0.3046
      8 C6          2.6835   -2.6396   -0.0383 C.3       1 <0>         0.0579
      9 H1          2.7498   -3.2863    0.8366 H         1 <0>         0.2309
     10 N2          1.3599   -1.9973   -0.0222 N.pl3     1 <0>        -0.4139
     11 C7          1.3010   -0.6969   -0.0141 C.ar      1 <0>         0.3350
     12 C8          0.0021   -0.0041    0.0020 C.ar      1 <0>        -0.1145
     13 C9          2.7525   -3.5331   -1.2784 C.3       1 <0>        -0.1703
     14 S1          1.3060   -4.6271   -1.3166 S.3       1 <0>         0.0690
     15 C10         1.5298   -5.5786   -2.7826 C.2       1 <0>        -0.0141
     16 N3          2.5100   -5.5373   -3.6646 N.2       1 <0>        -0.2408
     17 N4          2.4882   -6.3800   -4.7518 N.2       1 <0>        -0.3700
     18 C11         1.4880   -7.2250   -4.9073 C.2       1 <0>         0.3775
     19 S2          0.4943   -6.8628   -3.4678 S.3       1 <0>         0.0591
     20 N5          1.2684   -8.1534   -5.9182 N.pl3     1 <0>        -0.7684
     21 H2         -0.9663    1.8603    0.0259 H         1 <0>         0.2116
     22 H3          1.0967    3.1783    0.0086 H         1 <0>         0.2105
     23 H4          3.2779    2.1589   -0.0188 H         1 <0>         0.2144
     24 H5         -0.9202   -0.5660    0.0082 H         1 <0>         0.2184
     25 H6          2.7619   -2.9118   -2.1739 H         1 <0>         0.1379
     26 H7          3.6614   -4.1337   -1.2433 H         1 <0>         0.1724
     27 H8          1.9070   -8.2413   -6.6431 H         1 <0>         0.4328
     28 H9          0.4766   -8.7134   -5.8988 H         1 <0>         0.4325
     29 H10         0.5497   -2.5306   -0.0174 H         1 <0>         0.4828
     30 H11         4.5208    0.1517   -0.0410 H         1 <0>         0.4738
@<TRIPOS>BOND
     1    1   12 ar
     2    1    2 ar
     3    1   21 1
     4    2    3 ar
     5    2   22 1
     6    3    4 ar
     7    3   23 1
     8    4   11 ar
     9    4    5 2
    10    5    6 am
    11    5   30 1
    12    6    7 2
    13    6    8 1
    14    8    9 1
    15    8   10 1
    16    8   13 1
    17   10   11 2
    18   10   29 1
    19   11   12 ar
    20   12   24 1
    21   13   14 1
    22   13   25 1
    23   13   26 1
    24   14   15 1
    25   15   19 1
    26   15   16 2
    27   16   17 1
    28   17   18 2
    29   18   19 1
    30   18   20 1
    31   20   27 1
    32   20   28 1
@<TRIPOS>MOLECULE
ZINC04277721
   43    45     0     0     0
SMALL
USER_CHARGES
3-[(4-hydroxyphenyl)methyl]-8-methylsulfonyl-1,4,8-triazabicyclo[4.4.0]decane-2,5-dione
@<TRIPOS>ATOM
      1 C1         -3.2759   -0.8970   -1.5278 C.3       1 <0>        -0.6733
      2 S1         -3.1186    0.7938   -2.1657 S.o2      1 <0>         2.6073
      3 O1         -4.3698    1.4634   -2.0909 O.2       1 <0>        -0.9441
      4 O2         -2.3678    0.7940   -3.3721 O.2       1 <0>        -0.9477
      5 N1         -2.1552    1.5748   -1.0683 N.pl3     1 <0>        -0.9916
      6 C2         -0.7085    1.5696   -1.2505 C.3       1 <0>         0.1089
      7 C3         -0.0127    1.0858    0.0080 C.3       1 <0>         0.1042
      8 N2         -0.6546    1.5351    1.2282 N.am      1 <0>        -0.5982
      9 C4         -1.9831    2.1018    1.3346 C.3       1 <0>         0.1143
     10 H1         -1.8287    3.1126    1.7122 H         1 <0>         0.1023
     11 C5         -2.7642    2.2554    0.0634 C.3       1 <0>         0.1278
     12 C6         -2.7483    1.3815    2.4173 C.2       1 <0>         0.5104
     13 O3         -3.8868    0.9968    2.2536 O.2       1 <0>        -0.5038
     14 N3         -2.0805    1.1890    3.5922 N.am      1 <0>        -0.7221
     15 C7         -0.7147    1.7369    3.6801 C.3       1 <0>         0.1280
     16 H2         -0.7602    2.8209    3.7854 H         1 <0>         0.1141
     17 C8          0.0275    1.3789    2.4094 C.2       1 <0>         0.5085
     18 O4          1.1701    0.9730    2.4348 O.2       1 <0>        -0.4942
     19 C9          0.0063    1.1321    4.8864 C.3       1 <0>        -0.0739
     20 C10        -0.6795    1.5722    6.1541 C.ar      1 <0>        -0.1014
     21 C11        -0.2748    2.7305    6.7915 C.ar      1 <0>        -0.0935
     22 C12        -0.9057    3.1390    7.9506 C.ar      1 <0>        -0.1401
     23 C13        -1.9387    2.3799    8.4812 C.ar      1 <0>         0.1085
     24 C14        -2.3391    1.2151    7.8428 C.ar      1 <0>        -0.1391
     25 C15        -1.7088    0.8139    6.6809 C.ar      1 <0>        -0.1024
     26 O5         -2.5575    2.7770    9.6241 O.3       1 <0>        -0.4995
     27 H3         -3.7314   -0.8710   -0.5379 H         1 <0>         0.1301
     28 H4         -3.9024   -1.4824   -2.2008 H         1 <0>         0.1320
     29 H5         -2.2884   -1.3536   -1.4615 H         1 <0>         0.1266
     30 H6         -0.3719    2.5803   -1.4813 H         1 <0>         0.0866
     31 H7         -0.4537    0.9083   -2.0787 H         1 <0>         0.1130
     32 H8          0.0021   -0.0041    0.0020 H         1 <0>         0.0677
     33 H9          1.0152    1.4484    0.0001 H         1 <0>         0.0973
     34 H10        -2.8482    3.3168   -0.1700 H         1 <0>         0.0951
     35 H11        -3.7647    1.8513    0.2181 H         1 <0>         0.1167
     36 H12        -2.4857    0.7141    4.3346 H         1 <0>         0.4147
     37 H13        -0.0200    0.0446    4.8177 H         1 <0>         0.0899
     38 H14         1.0424    1.4705    4.8976 H         1 <0>         0.1081
     39 H15         0.5323    3.3187    6.3804 H         1 <0>         0.1307
     40 H16        -0.5921    4.0461    8.4457 H         1 <0>         0.1316
     41 H17        -3.1428    0.6223    8.2541 H         1 <0>         0.1314
     42 H18        -2.0204   -0.0926    6.1833 H         1 <0>         0.1258
     43 H19        -2.1531    2.4302   10.4312 H         1 <0>         0.3935
@<TRIPOS>BOND
     1    1    2 1
     2    1   27 1
     3    1   28 1
     4    1   29 1
     5    2    3 2
     6    2    4 2
     7    2    5 1
     8    5   11 1
     9    5    6 1
    10    6    7 1
    11    6   30 1
    12    6   31 1
    13    7    8 1
    14    7   32 1
    15    7   33 1
    16    8   17 am
    17    8    9 1
    18    9   10 1
    19    9   11 1
    20    9   12 1
    21   11   34 1
    22   11   35 1
    23   12   13 2
    24   12   14 am
    25   14   15 1
    26   14   36 1
    27   15   16 1
    28   15   17 1
    29   15   19 1
    30   17   18 2
    31   19   20 1
    32   19   37 1
    33   19   38 1
    34   20   25 ar
    35   20   21 ar
    36   21   22 ar
    37   21   39 1
    38   22   23 ar
    39   22   40 1
    40   23   24 ar
    41   23   26 1
    42   24   25 ar
    43   24   41 1
    44   25   42 1
    45   26   43 1
@<TRIPOS>MOLECULE
ZINC14138028
   37    39     0     0     0
SMALL
USER_CHARGES

@<TRIPOS>ATOM
      1 C1          0.8038    0.0347    1.1486 C.ar      1 <0>        -0.0757
      2 C2          1.9846    0.7418    1.1363 C.ar      1 <0>        -0.1143
      3 C3          2.3808    1.4180   -0.0131 C.ar      1 <0>         0.0813
      4 C4          1.5860    1.3827   -1.1543 C.ar      1 <0>        -0.1128
      5 C5          0.4035    0.6784   -1.1503 C.ar      1 <0>        -0.0762
      6 C6          0.0016   -0.0033    0.0032 C.ar      1 <0>        -0.1147
      7 C7         -1.2626   -0.7591    0.0117 C.2       1 <0>         0.5189
      8 O1         -1.6123   -1.3546    1.0214 O.co2     1 <0>        -0.6823
      9 O2         -1.9627   -0.7912   -0.9909 O.co2     1 <0>        -0.6826
     10 N1          3.5799    2.1348   -0.0211 N.am      1 <0>        -0.5178
     11 C8          3.6252    3.4701   -0.1073 C.2       1 <0>         0.5195
     12 O3          2.6619    4.2016   -0.1862 O.2       1 <0>        -0.4597
     13 C9          5.0694    3.9213   -0.0900 C.3       1 <0>        -0.1488
     14 C10         5.8592    2.6014    0.0223 C.3       1 <0>         0.0526
     15 H1          6.5028    2.4644   -0.8466 H         1 <0>         0.1448
     16 C11         4.7781    1.5435    0.0624 C.2       1 <0>         0.4918
     17 O4          4.9670    0.3495    0.1529 O.2       1 <0>        -0.4618
     18 N2          6.6511    2.5764    1.2594 N.3       1 <0>        -0.4977
     19 C12         7.5671    1.4244    1.2761 C.3       1 <0>         0.0217
     20 C13         8.5709    1.6115    2.4153 C.3       1 <0>         0.1173
     21 N3          7.8674    1.9252    3.6557 N.am      1 <0>        -0.7189
     22 C14         6.6057    2.3673    3.6839 C.2       1 <0>         0.5317
     23 O5          6.1072    2.6335    4.7569 O.2       1 <0>        -0.5438
     24 C15         5.7798    2.5481    2.4417 C.3       1 <0>         0.0198
     25 H2          0.4991   -0.4937    2.0399 H         1 <0>         0.1362
     26 H3          2.6043    0.7719    2.0203 H         1 <0>         0.1144
     27 H4          1.8972    1.9091   -2.0445 H         1 <0>         0.1180
     28 H5         -0.2133    0.6522   -2.0364 H         1 <0>         0.1366
     29 H6          5.3201    4.4409   -1.0148 H         1 <0>         0.1319
     30 H7          5.2619    4.5582    0.7734 H         1 <0>         0.1314
     31 H8          6.9990    0.5080    1.4362 H         1 <0>         0.0671
     32 H9          8.0988    1.3663    0.3263 H         1 <0>         0.1059
     33 H10         9.1439    0.6936    2.5468 H         1 <0>         0.0859
     34 H11         9.2501    2.4275    2.1685 H         1 <0>         0.0783
     35 H12         8.3360    1.8073    4.4967 H         1 <0>         0.4035
     36 H13         5.2284    3.4861    2.5073 H         1 <0>         0.1204
     37 H14         5.0752    1.7214    2.3522 H         1 <0>         0.0779
@<TRIPOS>BOND
     1    1    6 ar
     2    1    2 ar
     3    1   25 1
     4    2    3 ar
     5    2   26 1
     6    3    4 ar
     7    3   10 1
     8    4    5 ar
     9    4   27 1
    10    5    6 ar
    11    5   28 1
    12    6    7 1
    13    7    8 2
    14    7    9 1
    15   10   16 am
    16   10   11 am
    17   11   12 2
    18   11   13 1
    19   13   14 1
    20   13   29 1
    21   13   30 1
    22   14   15 1
    23   14   16 1
    24   14   18 1
    25   16   17 2
    26   18   24 1
    27   18   19 1
    28   19   20 1
    29   19   31 1
    30   19   32 1
    31   20   21 1
    32   20   33 1
    33   20   34 1
    34   21   22 am
    35   21   35 1
    36   22   23 2
    37   22   24 1
    38   24   36 1
    39   24   37 1
@<TRIPOS>MOLECULE
ZINC41563394
   30    31     0     0     0
SMALL
USER_CHARGES

@<TRIPOS>ATOM
      1 C1         -0.0178    1.4608    0.0101 C.3       1 <0>         0.0694
      2 N1          0.0021   -0.0041    0.0020 N.pl3     1 <0>        -0.9675
      3 C2          0.0241   -0.7433    1.2666 C.3       1 <0>         0.1409
      4 H1          0.0243   -1.8148    1.0667 H         1 <0>         0.1272
      5 C3         -1.2090   -0.3720    2.1068 C.3       1 <0>        -0.1368
      6 C4         -1.0359   -0.8891    3.5553 C.3       1 <0>        -0.5757
      7 S1          0.7910   -0.8929    3.7671 S.o2      1 <0>         2.3695
      8 O1          1.2288   -2.2277    3.9812 O.2       1 <0>        -0.9300
      9 O2          1.1506    0.1187    4.6981 O.2       1 <0>        -0.9318
     10 C5          1.2952   -0.3600    2.0771 C.3       1 <0>        -0.5936
     11 S2         -0.0004   -0.8243   -1.4366 S.o2      1 <0>         2.7316
     12 O3         -0.5312   -2.1147   -1.1675 O.2       1 <0>        -0.9291
     13 O4         -0.5723    0.0488   -2.4009 O.2       1 <0>        -0.9261
     14 C6          1.6818   -1.0594   -1.9051 C.2       1 <0>        -0.5668
     15 N2          2.7900   -0.6958   -1.2924 N.2       1 <0>        -0.1107
     16 N3          3.9324   -0.9434   -1.7661 N.2       1 <0>        -0.3588
     17 C7          4.0881   -1.5879   -2.9150 C.2       1 <0>         0.3604
     18 S3          2.3727   -1.8676   -3.3457 S.3       1 <0>         0.0827
     19 N4          5.2471   -1.9466   -3.5872 N.pl3     1 <0>        -0.7639
     20 H2          1.0048    1.8381    0.0023 H         1 <0>         0.0686
     21 H3         -0.5450    1.8219   -0.8730 H         1 <0>         0.0927
     22 H4         -0.5280    1.8123    0.9069 H         1 <0>         0.0888
     23 H5         -1.3243    0.7118    2.1209 H         1 <0>         0.0989
     24 H6         -2.0973   -0.8236    1.6651 H         1 <0>         0.1065
     25 H7         -1.5060   -0.2103    4.2668 H         1 <0>         0.1470
     26 H8         -1.4388   -1.8968    3.6567 H         1 <0>         0.1446
     27 H9          2.1659   -0.9173    1.7317 H         1 <0>         0.1504
     28 H10         1.4771    0.7141    2.0402 H         1 <0>         0.1514
     29 H11         6.1137   -1.7218   -3.2137 H         1 <0>         0.4297
     30 H12         5.1911   -2.4222   -4.4307 H         1 <0>         0.4304
@<TRIPOS>BOND
     1    1    2 1
     2    1   20 1
     3    1   21 1
     4    1   22 1
     5    2    3 1
     6    2   11 1
     7    3    4 1
     8    3   10 1
     9    3    5 1
    10    5    6 1
    11    5   23 1
    12    5   24 1
    13    6    7 1
    14    6   25 1
    15    6   26 1
    16    7    8 2
    17    7    9 2
    18    7   10 1
    19   10   27 1
    20   10   28 1
    21   11   12 2
    22   11   13 2
    23   11   14 1
    24   14   18 1
    25   14   15 2
    26   15   16 1
    27   16   17 2
    28   17   18 1
    29   17   19 1
    30   19   29 1
    31   19   30 1
@<TRIPOS>MOLECULE
ZINC51661574
   41    41     0     0     0
SMALL
USER_CHARGES

@<TRIPOS>ATOM
      1 C1         -0.0183    1.5316    0.0054 C.3       1 <0>        -0.1607
      2 C2         -0.0022    0.0017   -0.0017 C.3       1 <0>        -0.0549
      3 H1         -1.0260   -0.3725    0.0036 H         1 <0>         0.1267
      4 C3          0.7220   -0.4988    1.2214 C.2       1 <0>         0.4917
      5 O1          0.1042   -0.7133    2.2504 O.co2     1 <0>        -0.6369
      6 O2          1.9256   -0.6892    1.1820 O.co2     1 <0>        -0.6692
      7 N1          0.6871   -0.4751   -1.2082 N.4       1 <0>        -0.3585
      8 C4         -0.0136    0.0223   -2.3989 C.3       1 <0>        -0.0288
      9 C5          0.7680   -0.3778   -3.6546 C.3       1 <0>         0.1096
     10 N2          0.9703   -1.8347   -3.6335 N.am      1 <0>        -0.6431
     11 C6          1.5186   -2.4409   -2.4104 C.3       1 <0>         0.0921
     12 C7          0.7016   -1.9434   -1.2134 C.3       1 <0>        -0.0147
     13 C8          0.6616   -2.5928   -4.7043 C.2       1 <0>         0.7136
     14 O3          0.1215   -2.0892   -5.6702 O.2       1 <0>        -0.5681
     15 N3          0.9516   -3.9090   -4.7043 N.am      1 <0>        -0.7372
     16 C9          0.7165   -4.7108   -5.9076 C.3       1 <0>         0.1490
     17 C10         1.1267   -6.1607   -5.6425 C.3       1 <0>        -0.6418
     18 S1          0.8356   -7.1536   -7.1325 S.o2      1 <0>         2.4316
     19 O4         -0.5631   -7.1930   -7.3802 O.2       1 <0>        -0.9293
     20 O5          1.7061   -6.6929   -8.1568 O.2       1 <0>        -0.9294
     21 C11         1.3748   -8.8089   -6.6227 C.3       1 <0>        -0.6518
     22 H2          1.0055    1.9057    0.0000 H         1 <0>         0.0766
     23 H3         -0.5421    1.8936   -0.8793 H         1 <0>         0.0692
     24 H4         -0.5297    1.8854    0.9006 H         1 <0>         0.1002
     25 H5         -1.0132   -0.4105   -2.4397 H         1 <0>         0.1270
     26 H6         -0.0894    1.1085   -2.3487 H         1 <0>         0.1416
     27 H7          0.2012   -0.0995   -4.5430 H         1 <0>         0.1337
     28 H8          1.7345    0.1262   -3.6605 H         1 <0>         0.0926
     29 H9          1.4480   -3.5266   -2.4763 H         1 <0>         0.1136
     30 H10         2.5609   -2.1453   -2.2906 H         1 <0>         0.1002
     31 H11         1.1527   -2.3057   -0.2897 H         1 <0>         0.1526
     32 H12        -0.3196   -2.3167   -1.2901 H         1 <0>         0.1221
     33 H13         1.3160   -4.3253   -3.9076 H         1 <0>         0.3998
     34 H14        -0.3414   -4.6743   -6.1676 H         1 <0>         0.0893
     35 H15         1.3072   -4.3110   -6.7318 H         1 <0>         0.0883
     36 H16         2.1847   -6.1973   -5.3825 H         1 <0>         0.1415
     37 H17         0.5360   -6.5606   -4.8183 H         1 <0>         0.1413
     38 H18         0.7777   -9.1399   -5.7730 H         1 <0>         0.1305
     39 H19         1.2445   -9.5048   -7.4515 H         1 <0>         0.1356
     40 H20         2.4263   -8.7766   -6.3373 H         1 <0>         0.1305
     41 H21         1.6354   -0.1306   -1.2106 H         1 <0>         0.4239
@<TRIPOS>BOND
     1    1    2 1
     2    1   22 1
     3    1   23 1
     4    1   24 1
     5    2    3 1
     6    2    4 1
     7    2    7 1
     8    4    5 2
     9    4    6 1
    10    7   12 1
    11    7    8 1
    12    7   41 1
    13    8    9 1
    14    8   25 1
    15    8   26 1
    16    9   10 1
    17    9   27 1
    18    9   28 1
    19   10   11 1
    20   10   13 am
    21   11   12 1
    22   11   29 1
    23   11   30 1
    24   12   31 1
    25   12   32 1
    26   13   14 2
    27   13   15 am
    28   15   16 1
    29   15   33 1
    30   16   17 1
    31   16   34 1
    32   16   35 1
    33   17   18 1
    34   17   36 1
    35   17   37 1
    36   18   19 2
    37   18   20 2
    38   18   21 1
    39   21   38 1
    40   21   39 1
    41   21   40 1
@<TRIPOS>MOLECULE
ZINC65264801
   34    36     0     0     0
SMALL
USER_CHARGES

@<TRIPOS>ATOM
      1 C1         -0.0167    1.3819    0.0096 C.ar      1 <0>         0.0552
      2 C2          1.1617    2.1020    0.0023 C.ar      1 <0>        -0.1798
      3 C3          2.3761    1.4339   -0.0129 C.ar      1 <0>         0.2553
      4 C4          2.3964    0.0280   -0.0207 C.ar      1 <0>        -0.2171
      5 C5          1.2010   -0.6862   -0.0131 C.ar      1 <0>         0.0877
      6 C6          0.0021   -0.0041    0.0020 C.ar      1 <0>        -0.7158
      7 S1         -1.5150   -0.9003    0.0123 S.o2      1 <0>         2.6939
      8 O1         -1.2258   -2.1820    0.5534 O.2       1 <0>        -0.9377
      9 O2         -2.4925   -0.0376    0.5775 O.2       1 <0>        -0.9378
     10 N1         -1.9522   -1.1408   -1.5667 N.pl3     1 <0>        -0.9656
     11 C7         -1.5005   -2.3395   -2.2774 C.3       1 <0>         0.2151
     12 C8         -2.5406   -3.3781   -2.1983 C.1       1 <0>         0.1803
     13 N2         -3.3433   -4.1796   -2.1373 N.1       1 <0>        -0.3973
     14 C9         -2.7909   -0.1549   -2.2529 C.3       1 <0>         0.0639
     15 C10        -3.3277   -0.5250   -3.6370 C.3       1 <0>        -0.1753
     16 C11        -2.2147    0.5160   -3.5014 C.3       1 <0>        -0.1861
     17 C12         3.7049   -0.6502   -0.0363 C.2       1 <0>         0.5679
     18 O3          3.7782   -1.8639   -0.0440 O.2       1 <0>        -0.4793
     19 N3          4.8204    0.1113   -0.0425 N.am      1 <0>        -0.6591
     20 H1          5.6898   -0.3187   -0.0531 H         1 <0>         0.4385
     21 C13         4.7492    1.4516   -0.0346 C.2       1 <0>         0.7093
     22 O4          5.7843    2.0893   -0.0407 O.2       1 <0>        -0.5290
     23 N4          3.5825    2.1190   -0.0203 N.am      1 <0>        -0.6420
     24 H2          3.5841    3.0890   -0.0151 H         1 <0>         0.4412
     25 H3         -0.9621    1.9038    0.0260 H         1 <0>         0.1581
     26 H4          1.1372    3.1817    0.0079 H         1 <0>         0.1545
     27 H5          1.2125   -1.7661   -0.0191 H         1 <0>         0.1642
     28 H6         -1.3119   -2.0930   -3.3223 H         1 <0>         0.1311
     29 H7         -0.5827   -2.7089   -1.8199 H         1 <0>         0.1317
     30 H8         -3.4318    0.4469   -1.6085 H         1 <0>         0.1518
     31 H9         -3.0569   -1.5021   -4.0370 H         1 <0>         0.1011
     32 H10        -4.3221   -0.1669   -3.9034 H         1 <0>         0.1092
     33 H11        -2.4769    1.5591   -3.6787 H         1 <0>         0.1086
     34 H12        -1.2117    0.2238   -3.8123 H         1 <0>         0.1032
@<TRIPOS>BOND
     1    1    6 ar
     2    1    2 ar
     3    1   25 1
     4    2    3 ar
     5    2   26 1
     6    3   23 1
     7    3    4 ar
     8    4    5 ar
     9    4   17 1
    10    5    6 ar
    11    5   27 1
    12    6    7 1
    13    7    8 2
    14    7    9 2
    15    7   10 1
    16   10   11 1
    17   10   14 1
    18   11   12 1
    19   11   28 1
    20   11   29 1
    21   12   13 3
    22   14   16 1
    23   14   15 1
    24   14   30 1
    25   15   16 1
    26   15   31 1
    27   15   32 1
    28   16   33 1
    29   16   34 1
    30   17   18 2
    31   17   19 am
    32   19   20 1
    33   19   21 am
    34   21   22 2
    35   21   23 am
    36   23   24 1
@<TRIPOS>MOLECULE
ZINC06015001
   72    76     0     0     0
SMALL
USER_CHARGES
3-[[4-(4-hydroxyphenyl)piperazin-1-yl]-(1-tert-butyltetrazol-5-yl)-methyl]-6,7-dimethoxy-1H-quinolin-2-one
@<TRIPOS>ATOM
      1 C1         -3.8024    5.7095   -2.0793 C.3       1 <0>        -0.1733
      2 C2         -5.3086    5.8256   -2.3223 C.3       1 <0>         0.1506
      3 C3         -5.5567    6.4564   -3.6939 C.3       1 <0>        -0.1558
      4 C4         -5.9341    6.7034   -1.2365 C.3       1 <0>        -0.1711
      5 N1         -5.9141    4.4922   -2.2812 N.pl3     1 <0>        -0.2642
      6 C5         -5.8452    3.6139   -1.2637 C.2       1 <0>         0.1201
      7 N2         -6.5228    2.5549   -1.6343 N.2       1 <0>        -0.2781
      8 N3         -6.9796    2.7695   -2.8197 N.2       1 <0>        -0.0500
      9 N4         -6.6109    3.9379   -3.2150 N.2       1 <0>        -0.0456
     10 C6         -5.1327    3.8121    0.0494 C.3       1 <0>         0.2082
     11 H1         -4.8442    4.8582    0.1519 H         1 <0>         0.1645
     12 C7         -3.9006    2.9452    0.0883 C.2       1 <0>        -0.2944
     13 C8         -3.5996    2.1502   -0.9700 C.2       1 <0>         0.0897
     14 C9         -2.3971    1.3210   -0.9022 C.ar      1 <0>        -0.1505
     15 C10        -2.0381    0.4814   -1.9645 C.ar      1 <0>        -0.1121
     16 C11        -0.8995   -0.2878   -1.8701 C.ar      1 <0>         0.0927
     17 C12        -0.1043   -0.2326   -0.7205 C.ar      1 <0>         0.1989
     18 C13        -0.4497    0.5925    0.3333 C.ar      1 <0>        -0.2361
     19 C14        -1.5980    1.3712    0.2566 C.ar      1 <0>         0.2159
     20 N5         -1.9573    2.2050    1.2961 N.am      1 <0>        -0.6119
     21 H2         -1.3853    2.2457    2.1153 H         1 <0>         0.4356
     22 C15        -3.0651    2.9632    1.2233 C.2       1 <0>         0.5576
     23 O1         -3.3541    3.6849    2.1624 O.2       1 <0>        -0.5565
     24 O2          1.0160   -0.9963   -0.6390 O.3       1 <0>        -0.2853
     25 C16         1.7845   -0.8947    0.5614 C.3       1 <0>         0.0162
     26 O3         -0.5470   -1.1049   -2.8989 O.3       1 <0>        -0.2952
     27 C17        -1.4028   -1.1135   -4.0432 C.3       1 <0>         0.0204
     28 C18        -6.3412    2.0052    1.1169 C.3       1 <0>        -0.0142
     29 C19        -7.2089    1.6444    2.3249 C.3       1 <0>         0.0319
     30 N6         -8.4380    2.4496    2.3000 N.pl3     1 <0>        -0.4821
     31 C20        -8.1247    3.8849    2.3364 C.3       1 <0>         0.0258
     32 C21        -7.2570    4.2457    1.1283 C.3       1 <0>        -0.0045
     33 C22        -9.2908    2.0957    3.3515 C.ar      1 <0>         0.0796
     34 C23        -9.7163    3.0600    4.2555 C.ar      1 <0>        -0.1460
     35 C24       -10.5626    2.7109    5.2896 C.ar      1 <0>        -0.1183
     36 C25       -10.9779    1.3953    5.4323 C.ar      1 <0>         0.1011
     37 C26       -10.5492    0.4304    4.5329 C.ar      1 <0>        -0.1186
     38 C27        -9.7075    0.7788    3.4949 C.ar      1 <0>        -0.1100
     39 O4        -11.8064    1.0512    6.4545 O.3       1 <0>        -0.4962
     40 H3         -3.3568    5.0841   -2.8528 H         1 <0>         0.0803
     41 H4         -3.3519    6.7015   -2.1098 H         1 <0>         0.1083
     42 H5         -3.6257    5.2601   -1.1021 H         1 <0>         0.0653
     43 H6         -6.6297    6.5392   -3.8670 H         1 <0>         0.0820
     44 H7         -5.1062    7.4485   -3.7244 H         1 <0>         0.0964
     45 H8         -5.1110    5.8310   -4.4674 H         1 <0>         0.0801
     46 H9         -5.6703    6.3104   -0.2547 H         1 <0>         0.0586
     47 H10        -5.5595    7.7225   -1.3325 H         1 <0>         0.1109
     48 H11        -7.0184    6.7028   -1.3487 H         1 <0>         0.0819
     49 H12        -4.2348    2.1303   -1.8433 H         1 <0>         0.1449
     50 H13        -2.6506    0.4378   -2.8530 H         1 <0>         0.1544
     51 H14         0.1698    0.6286    1.2172 H         1 <0>         0.1578
     52 H15         1.1690   -1.1858    1.4126 H         1 <0>         0.0650
     53 H16         2.6496   -1.5545    0.4960 H         1 <0>         0.1152
     54 H17         2.1211    0.1339    0.6914 H         1 <0>         0.0650
     55 H18        -1.0079   -1.8054   -4.7871 H         1 <0>         0.1123
     56 H19        -2.4027   -1.4305   -3.7467 H         1 <0>         0.0607
     57 H20        -1.4507   -0.1110   -4.4685 H         1 <0>         0.0591
     58 H21        -6.8817    1.7741    0.1990 H         1 <0>         0.1660
     59 H22        -5.4159    1.4301    1.1490 H         1 <0>         0.1309
     60 H23        -6.6580    1.8501    3.2427 H         1 <0>         0.0691
     61 H24        -7.4666    0.5861    2.2845 H         1 <0>         0.1303
     62 H25        -7.5842    4.1160    3.2543 H         1 <0>         0.0759
     63 H26        -9.0500    4.4601    2.3042 H         1 <0>         0.1325
     64 H27        -6.9993    5.3041    1.1687 H         1 <0>         0.1364
     65 H28        -7.8079    4.0401    0.2105 H         1 <0>         0.1340
     66 H29        -9.3889    4.0835    4.1476 H         1 <0>         0.1310
     67 H30       -10.8972    3.4617    5.9902 H         1 <0>         0.1356
     68 H31       -10.8733   -0.5937    4.6446 H         1 <0>         0.1379
     69 H32        -9.3737    0.0274    2.7946 H         1 <0>         0.1334
     70 H33       -11.3455    0.7858    7.2621 H         1 <0>         0.3954
     71 N7         -6.0153    3.4457    1.1776 N.4       1 <0>        -0.3875
     72 H34        -5.5274    3.6407    2.0597 H         1 <0>         0.4422
@<TRIPOS>BOND
     1    1    2 1
     2    1   40 1
     3    1   41 1
     4    1   42 1
     5    2    3 1
     6    2    4 1
     7    2    5 1
     8    3   43 1
     9    3   44 1
    10    3   45 1
    11    4   46 1
    12    4   47 1
    13    4   48 1
    14    5    9 1
    15    5    6 1
    16    6    7 2
    17    6   10 1
    18    7    8 1
    19    8    9 2
    20   10   11 1
    21   10   12 1
    22   10   71 1
    23   12   22 1
    24   12   13 2
    25   13   14 1
    26   13   49 1
    27   14   19 ar
    28   14   15 ar
    29   15   16 ar
    30   15   50 1
    31   16   17 ar
    32   16   26 1
    33   17   18 ar
    34   17   24 1
    35   18   19 ar
    36   18   51 1
    37   19   20 1
    38   20   21 1
    39   20   22 am
    40   22   23 2
    41   24   25 1
    42   25   52 1
    43   25   53 1
    44   25   54 1
    45   26   27 1
    46   27   55 1
    47   27   56 1
    48   27   57 1
    49   28   29 1
    50   28   58 1
    51   28   59 1
    52   28   71 1
    53   29   30 1
    54   29   60 1
    55   29   61 1
    56   30   31 1
    57   30   33 1
    58   31   32 1
    59   31   62 1
    60   31   63 1
    61   32   64 1
    62   32   65 1
    63   32   71 1
    64   33   38 ar
    65   33   34 ar
    66   34   35 ar
    67   34   66 1
    68   35   36 ar
    69   35   67 1
    70   36   37 ar
    71   36   39 1
    72   37   38 ar
    73   37   68 1
    74   38   69 1
    75   39   70 1
    76   71   72 1
@<TRIPOS>MOLECULE
ZINC06195884
   70    75     0     0     0
SMALL
USER_CHARGES
7-[(R)-[4-(2,5-dimethylphenyl)piperazin-1-yl]-[1-(2-methoxyethyl)tetrazol-5-yl]methyl]-5H-[1,3]dioxolo[4,5-g]quinolin-6-one
@<TRIPOS>ATOM
      1 C1         -2.5609    3.8633    0.0473 C.3       1 <0>        -0.1213
      2 C2         -1.2429    3.1328    0.0308 C.ar      1 <0>        -0.0758
      3 C3         -1.2197    1.7500    0.0174 C.ar      1 <0>        -0.1023
      4 C4         -0.0126    1.0758    0.0080 C.ar      1 <0>        -0.1094
      5 C5          1.1746    1.7819    0.0004 C.ar      1 <0>        -0.0540
      6 C6          1.1548    3.1706    0.0081 C.ar      1 <0>         0.0619
      7 C7         -0.0598    3.8449    0.0233 C.ar      1 <0>        -0.1419
      8 N1          2.3534    3.8877    0.0009 N.pl3     1 <0>        -0.4885
      9 C8          2.5056    4.6713    1.2348 C.3       1 <0>         0.0306
     10 C9          3.8633    5.3776    1.2231 C.3       1 <0>         0.0070
     11 C10         3.8000    5.4595   -1.1951 C.3       1 <0>        -0.0003
     12 C11         2.4423    4.7532   -1.1834 C.3       1 <0>         0.0323
     13 C12         5.2128    6.9973    0.0313 C.3       1 <0>         0.2154
     14 H1          6.0347    6.3287   -0.2250 H         1 <0>         0.1648
     15 C13         5.4529    7.5880    1.3967 C.2       1 <0>        -0.2852
     16 C14         6.6148    7.3312    2.0497 C.2       1 <0>         0.0831
     17 C15         6.8182    7.9194    3.3730 C.ar      1 <0>        -0.1501
     18 C16         7.9980    7.6897    4.0921 C.ar      1 <0>        -0.0298
     19 C17         8.1611    8.2581    5.3360 C.ar      1 <0>         0.0149
     20 C18         7.1528    9.0624    5.8822 C.ar      1 <0>         0.1300
     21 C19         5.9846    9.2938    5.1794 C.ar      1 <0>        -0.1600
     22 C20         5.8052    8.7285    3.9233 C.ar      1 <0>         0.2227
     23 N2          4.6464    8.9502    3.2070 N.am      1 <0>        -0.6120
     24 H2          3.9490    9.5074    3.5867 H         1 <0>         0.4304
     25 C21         4.4724    8.4098    1.9884 C.2       1 <0>         0.5436
     26 O1          3.4383    8.6317    1.3820 O.2       1 <0>        -0.5183
     27 O2          7.5624    9.4955    7.1095 O.3       1 <0>        -0.2922
     28 C22         8.9872    9.2920    7.1349 C.3       1 <0>         0.2097
     29 O3          9.1951    8.1947    6.2264 O.3       1 <0>        -0.2959
     30 C23         5.1296    8.1046   -0.9876 C.2       1 <0>         0.1152
     31 N3          4.1222    8.9219   -1.1746 N.2       1 <0>        -0.2441
     32 N4          4.4339    9.7252   -2.1325 N.2       1 <0>        -0.0496
     33 N5          5.6110    9.4363   -2.5667 N.2       1 <0>        -0.0496
     34 N6          6.0731    8.4425   -1.8861 N.pl3     1 <0>        -0.2796
     35 C24         7.3795    7.8023   -2.0584 C.3       1 <0>         0.0995
     36 C25         7.2584    6.6600   -3.0690 C.3       1 <0>         0.0459
     37 O4          8.5327    6.0356   -3.2372 O.3       1 <0>        -0.3793
     38 C26         8.5298    4.9495   -4.1659 C.3       1 <0>         0.0301
     39 C27         2.4897    1.0462   -0.0166 C.3       1 <0>        -0.1080
     40 H3         -2.8885    4.0450   -0.9764 H         1 <0>         0.0751
     41 H4         -3.3052    3.2583    0.5650 H         1 <0>         0.0726
     42 H5         -2.4424    4.8151    0.5651 H         1 <0>         0.0667
     43 H6         -2.1465    1.1955    0.0184 H         1 <0>         0.1294
     44 H7          0.0021   -0.0041    0.0020 H         1 <0>         0.1318
     45 H8         -0.0787    4.9247    0.0289 H         1 <0>         0.1181
     46 H9          1.7099    5.4139    1.2946 H         1 <0>         0.0675
     47 H10         2.4488    4.0068    2.0969 H         1 <0>         0.1282
     48 H11         4.6598    4.6342    1.1909 H         1 <0>         0.1444
     49 H12         3.9663    5.9825    2.1241 H         1 <0>         0.1299
     50 H13         4.5957    4.7170   -1.2549 H         1 <0>         0.1436
     51 H14         3.8568    6.1240   -2.0572 H         1 <0>         0.1247
     52 H15         2.3393    4.1483   -2.0844 H         1 <0>         0.1279
     53 H16         1.6458    5.4966   -1.1512 H         1 <0>         0.0683
     54 H17         7.3730    6.7061    1.6015 H         1 <0>         0.1641
     55 H18         8.7763    7.0692    3.6732 H         1 <0>         0.1593
     56 H19         5.2114    9.9147    5.6072 H         1 <0>         0.1577
     57 H20         9.5073   10.1833    6.7838 H         1 <0>         0.0999
     58 H21         9.3178    9.0255    8.1388 H         1 <0>         0.1471
     59 H22         8.0982    8.5359   -2.4238 H         1 <0>         0.1396
     60 H23         7.7192    7.4063   -1.1014 H         1 <0>         0.1222
     61 H24         6.5397    5.9264   -2.7037 H         1 <0>         0.0536
     62 H25         6.9187    7.0561   -4.0261 H         1 <0>         0.0736
     63 H26         8.2165    5.3101   -5.1456 H         1 <0>         0.0518
     64 H27         9.5331    4.5296   -4.2370 H         1 <0>         0.1015
     65 H28         7.8375    4.1804   -3.8233 H         1 <0>         0.0478
     66 H29         2.7968    0.8747   -1.0483 H         1 <0>         0.0702
     67 H30         3.2463    1.6427    0.4933 H         1 <0>         0.0735
     68 H31         2.3773    0.0892    0.4929 H         1 <0>         0.0653
     69 N7          3.9307    6.2609    0.0401 N.4       1 <0>        -0.3919
     70 H32         3.1584    6.9361    0.0832 H         1 <0>         0.4468
@<TRIPOS>BOND
     1    1    2 1
     2    1   40 1
     3    1   41 1
     4    1   42 1
     5    2    7 ar
     6    2    3 ar
     7    3    4 ar
     8    3   43 1
     9    4    5 ar
    10    4   44 1
    11    5    6 ar
    12    5   39 1
    13    6    7 ar
    14    6    8 1
    15    7   45 1
    16    8   12 1
    17    8    9 1
    18    9   10 1
    19    9   46 1
    20    9   47 1
    21   10   48 1
    22   10   49 1
    23   10   69 1
    24   11   12 1
    25   11   50 1
    26   11   51 1
    27   11   69 1
    28   12   52 1
    29   12   53 1
    30   13   14 1
    31   13   15 1
    32   13   30 1
    33   13   69 1
    34   15   25 1
    35   15   16 2
    36   16   17 1
    37   16   54 1
    38   17   22 ar
    39   17   18 ar
    40   18   19 ar
    41   18   55 1
    42   19   29 1
    43   19   20 ar
    44   20   21 ar
    45   20   27 1
    46   21   22 ar
    47   21   56 1
    48   22   23 1
    49   23   24 1
    50   23   25 am
    51   25   26 2
    52   27   28 1
    53   28   29 1
    54   28   57 1
    55   28   58 1
    56   30   34 1
    57   30   31 2
    58   31   32 1
    59   32   33 2
    60   33   34 1
    61   34   35 1
    62   35   36 1
    63   35   59 1
    64   35   60 1
    65   36   37 1
    66   36   61 1
    67   36   62 1
    68   37   38 1
    69   38   63 1
    70   38   64 1
    71   38   65 1
    72   39   66 1
    73   39   67 1
    74   39   68 1
    75   69   70 1
@<TRIPOS>MOLECULE
ZINC19818615
   69    73     0     0     0
SMALL
USER_CHARGES
ethyl 2-[[4-[(3-ethoxycarbonyl-5-hydroxy-benzofuran-2-yl)methyl]piperazin-1-yl]methyl]-5-hydroxy-benzofuran-3-carboxylate
@<TRIPOS>ATOM
      1 C1          5.4464   -4.2113    2.4328 C.3       1 <0>        -0.1597
      2 C2          5.2101   -3.6631    1.0241 C.3       1 <0>         0.0584
      3 O1          4.6569   -2.3235    1.1126 O.3       1 <0>        -0.3405
      4 C3          4.3886   -1.6941   -0.0491 C.2       1 <0>         0.5276
      5 O2          4.6112   -2.2500   -1.1072 O.2       1 <0>        -0.4763
      6 C4          3.8275   -0.3365   -0.0364 C.2       1 <0>        -0.1415
      7 C5          2.3988    0.0379   -0.0207 C.ar      1 <0>        -0.0669
      8 C6          1.2081   -0.6809   -0.0132 C.ar      1 <0>        -0.1208
      9 C7          0.0021   -0.0041    0.0020 C.ar      1 <0>         0.1695
     10 C8         -0.0168    1.3870    0.0097 C.ar      1 <0>        -0.1570
     11 C9          1.1596    2.1045    0.0023 C.ar      1 <0>        -0.0576
     12 C10         2.3800    1.4398   -0.0130 C.ar      1 <0>         0.0323
     13 O3          3.6609    1.8660   -0.0230 O.3       1 <0>        -0.1639
     14 C11         4.5164    0.8380   -0.0367 C.2       1 <0>         0.0141
     15 C12         6.0182    0.9612   -0.0505 C.3       1 <0>         0.0793
     16 N1          6.4929    1.0092   -1.4398 N.4       1 <0>        -0.4072
     17 C13         6.2437   -0.2662   -2.1260 C.3       1 <0>        -0.0115
     18 C14         6.6785   -0.1490   -3.5887 C.3       1 <0>         0.0158
     19 N2          8.1031    0.2071   -3.6465 N.3       1 <0>        -0.5354
     20 C15         8.3524    1.4826   -2.9604 C.3       1 <0>         0.0263
     21 C16         7.9175    1.3654   -1.4976 C.3       1 <0>         0.0011
     22 C17         8.5778    0.2552   -5.0359 C.3       1 <0>         0.1200
     23 C18         8.5333   -1.1290   -5.6301 C.2       1 <0>         0.1046
     24 C19         7.4663   -1.6661   -6.2836 C.2       1 <0>        -0.2047
     25 C20         7.8854   -3.0246   -6.6842 C.ar      1 <0>        -0.0560
     26 C21         7.2697   -4.0668   -7.3692 C.ar      1 <0>        -0.1280
     27 C22         7.9584   -5.2478   -7.5779 C.ar      1 <0>         0.1627
     28 C23         9.2589   -5.3896   -7.1044 C.ar      1 <0>        -0.1717
     29 C24         9.8741   -4.3606   -6.4251 C.ar      1 <0>        -0.0550
     30 C25         9.1960   -3.1673   -6.2070 C.ar      1 <0>         0.0188
     31 O4          9.5339   -2.0156   -5.5893 O.3       1 <0>        -0.1632
     32 O5          7.3638   -6.2717   -8.2461 O.3       1 <0>        -0.5033
     33 C26         6.1688   -1.0265   -6.5392 C.2       1 <0>         0.5384
     34 O6          5.9986   -0.3820   -7.5559 O.2       1 <0>        -0.4763
     35 O7          5.1667   -1.1542   -5.6463 O.3       1 <0>        -0.3526
     36 C27         3.9125   -0.4955   -5.9644 C.3       1 <0>         0.0555
     37 C28         2.9035   -0.7509   -4.8429 C.3       1 <0>        -0.1519
     38 O8         -1.1665   -0.6990    0.0090 O.3       1 <0>        -0.4996
     39 H1          5.8655   -5.2261    2.3658 H         1 <0>         0.0905
     40 H2          4.4918   -4.2441    2.9784 H         1 <0>         0.0727
     41 H3          6.1518   -3.5578    2.9670 H         1 <0>         0.0697
     42 H4          6.1647   -3.6303    0.4785 H         1 <0>         0.0771
     43 H5          4.5047   -4.3166    0.4899 H         1 <0>         0.0811
     44 H6          1.2252   -1.7607   -0.0188 H         1 <0>         0.1398
     45 H7         -0.9621    1.9093    0.0170 H         1 <0>         0.1539
     46 H8          1.1332    3.1841    0.0084 H         1 <0>         0.1484
     47 H9          6.3152    1.8833    0.4705 H         1 <0>         0.1652
     48 H10         6.4620    0.0931    0.4588 H         1 <0>         0.1576
     49 H11         6.8182   -1.0653   -1.6346 H         1 <0>         0.1375
     50 H12         5.1708   -0.5042   -2.0794 H         1 <0>         0.1483
     51 H13         6.5192   -1.1115   -4.0968 H         1 <0>         0.1422
     52 H14         6.0840    0.6312   -4.0866 H         1 <0>         0.0621
     53 H15         9.4254    1.7204   -3.0071 H         1 <0>         0.1334
     54 H16         7.7780    2.2817   -3.4518 H         1 <0>         0.0680
     55 H17         8.0758    2.3277   -0.9888 H         1 <0>         0.1451
     56 H18         8.5111    0.5850   -0.9990 H         1 <0>         0.1415
     57 H19         7.9319    0.9264   -5.6210 H         1 <0>         0.0862
     58 H20         9.6116    0.6304   -5.0574 H         1 <0>         0.1248
     59 H21         6.2601   -3.9544   -7.7361 H         1 <0>         0.1341
     60 H22         9.7911   -6.3145   -7.2708 H         1 <0>         0.1484
     61 H23        10.8840   -4.4816   -6.0619 H         1 <0>         0.1438
     62 H24         7.9111   -7.2113   -8.4124 H         1 <0>         0.4432
     63 H25         4.0821    0.5866   -6.0657 H         1 <0>         0.0721
     64 H26         3.5182   -0.8949   -6.9104 H         1 <0>         0.0799
     65 H27         1.9533   -0.2519   -5.0839 H         1 <0>         0.0860
     66 H28         3.2979   -0.3514   -3.8969 H         1 <0>         0.0577
     67 H29         2.7340   -1.8330   -4.7416 H         1 <0>         0.0739
     68 H30        -2.1261   -0.1613    0.0211 H         1 <0>         0.4486
     69 H31         5.9251    1.7929   -1.9627 H         1 <0>         0.4434
@<TRIPOS>BOND
     1    1    2 1
     2    1   39 1
     3    1   40 1
     4    1   41 1
     5    2    3 1
     6    2   42 1
     7    2   43 1
     8    3    4 1
     9    4    5 2
    10    4    6 1
    11    6   14 2
    12    6    7 1
    13    7   12 ar
    14    7    8 ar
    15    8    9 ar
    16    8   44 1
    17    9   10 ar
    18    9   38 1
    19   10   11 ar
    20   10   45 1
    21   11   12 ar
    22   11   46 1
    23   12   13 1
    24   13   14 1
    25   14   15 1
    26   15   16 1
    27   15   47 1
    28   15   48 1
    29   16   21 1
    30   16   17 1
    31   16   69 1
    32   17   18 1
    33   17   49 1
    34   17   50 1
    35   18   19 1
    36   18   51 1
    37   18   52 1
    38   19   20 1
    39   19   22 1
    40   20   21 1
    41   20   53 1
    42   20   54 1
    43   21   55 1
    44   21   56 1
    45   22   23 1
    46   22   57 1
    47   22   58 1
    48   23   31 1
    49   23   24 2
    50   24   25 1
    51   24   33 1
    52   25   30 ar
    53   25   26 ar
    54   26   27 ar
    55   26   59 1
    56   27   28 ar
    57   27   32 1
    58   28   29 ar
    59   28   60 1
    60   29   30 ar
    61   29   61 1
    62   30   31 1
    63   32   62 1
    64   33   34 2
    65   33   35 1
    66   35   36 1
    67   36   37 1
    68   36   63 1
    69   36   64 1
    70   37   65 1
    71   37   66 1
    72   37   67 1
    73   38   68 1
@<TRIPOS>MOLECULE
ZINC39154610
   60    63     0     0     0
SMALL
USER_CHARGES

@<TRIPOS>ATOM
      1 C1          1.0879   -0.1662    1.5391 C.3       1 <0>        -0.1547
      2 C2          0.2407   -0.6624    0.3657 C.3       1 <0>         0.0590
      3 O1          1.0890   -1.2680   -0.6118 O.3       1 <0>        -0.3462
      4 C3          0.4973   -1.7584   -1.7124 C.2       1 <0>         0.4737
      5 O2         -0.7012   -1.6762   -1.8415 O.2       1 <0>        -0.4928
      6 C4          1.3279   -2.4115   -2.7869 C.3       1 <0>        -0.0975
      7 H1          2.2813   -1.8901   -2.8724 H         1 <0>         0.1289
      8 C5          1.5816   -3.8711   -2.4127 C.3       1 <0>        -0.0752
      9 H2          2.4806   -3.9230   -1.7986 H         1 <0>         0.1174
     10 C6          1.7627   -4.7954   -3.6326 C.3       1 <0>        -0.1023
     11 H3          1.0403   -5.6112   -3.6077 H         1 <0>         0.1408
     12 S1          1.4337   -3.6792   -5.0594 S.3       1 <0>        -0.0862
     13 C7          0.5727   -2.3277   -4.1428 C.3       1 <0>         0.1788
     14 H4         -0.4887   -2.5435   -4.0204 H         1 <0>         0.1364
     15 N1          0.7790   -1.0296   -4.7897 N.am      1 <0>        -0.6998
     16 C8          1.0617   -0.9701   -6.1062 C.2       1 <0>         0.5336
     17 O3          1.1453   -1.9912   -6.7552 O.2       1 <0>        -0.4730
     18 C9          1.2740    0.3653   -6.7717 C.3       1 <0>        -0.1764
     19 S2          1.6344    0.1133   -8.5316 S.3       1 <0>         0.2417
     20 C10         1.8544    1.7449   -9.1595 C.2       1 <0>         0.2195
     21 N2          1.7360    2.7494   -8.3248 N.2       1 <0>        -0.5113
     22 C11         1.8419    4.1013   -8.8685 C.3       1 <0>         0.2293
     23 H5          0.8550    4.4586   -9.1624 H         1 <0>         0.1992
     24 C12         2.7389    4.0009  -10.0940 C.2       1 <0>         0.0226
     25 C13         3.6641    4.9898   -9.9521 C.ar      1 <0>        -0.0269
     26 C14         4.6879    5.4654  -10.8084 C.ar      1 <0>        -0.0446
     27 C15         5.4663    6.4811  -10.3486 C.ar      1 <0>        -0.1048
     28 C16         5.3187    7.0788   -9.0932 C.ar      1 <0>         0.0333
     29 C17         4.3680    6.7090   -8.1941 C.ar      1 <0>        -0.1736
     30 C18         3.4709    5.6177   -8.6086 C.ar      1 <0>         0.3297
     31 N3          2.4732    5.0704   -7.9842 N.pl3     1 <0>        -0.5191
     32 N4          2.6114    2.9951  -10.9654 N.2       1 <0>        -0.0403
     33 N5          2.1417    1.8891  -10.4764 N.2       1 <0>        -0.1033
     34 C19         3.1690   -5.3342   -3.6875 C.2       1 <0>         0.4862
     35 O4          4.0840   -4.6809   -3.2449 O.2       1 <0>        -0.4937
     36 O5          3.4052   -6.5399   -4.2282 O.3       1 <0>        -0.3438
     37 C20         4.7620   -6.9879   -4.2470 C.3       1 <0>         0.0606
     38 C21         4.8332   -8.3716   -4.8961 C.3       1 <0>        -0.1541
     39 C22         0.3967   -4.3790   -1.5887 C.3       1 <0>        -0.1654
     40 H6          1.6158   -1.0079    1.9876 H         1 <0>         0.0698
     41 H7          1.8107    0.5669    1.1811 H         1 <0>         0.0668
     42 H8          0.4408    0.2957    2.2848 H         1 <0>         0.0839
     43 H9         -0.4821   -1.3955    0.7238 H         1 <0>         0.0725
     44 H10        -0.2872    0.1793   -0.0827 H         1 <0>         0.0696
     45 H11         0.7121   -0.2129   -4.2706 H         1 <0>         0.4139
     46 H12         0.3731    0.9701   -6.6682 H         1 <0>         0.1413
     47 H13         2.1119    0.8777   -6.2989 H         1 <0>         0.1372
     48 H14         4.8437    5.0382  -11.7880 H         1 <0>         0.1790
     49 H15         6.2494    6.8498  -10.9947 H         1 <0>         0.1641
     50 H16         5.9956    7.8758   -8.8232 H         1 <0>         0.1711
     51 H17         4.2764    7.1883   -7.2307 H         1 <0>         0.1831
     52 H18         5.3685   -6.2863   -4.8197 H         1 <0>         0.0698
     53 H19         5.1397   -7.0456   -3.2261 H         1 <0>         0.0706
     54 H20         5.8681   -8.7133   -4.9104 H         1 <0>         0.0830
     55 H21         4.2268   -9.0732   -4.3234 H         1 <0>         0.0688
     56 H22         4.4555   -8.3138   -5.9169 H         1 <0>         0.0686
     57 H23        -0.5292   -4.2007   -2.1355 H         1 <0>         0.0728
     58 H24         0.5117   -5.4476   -1.4075 H         1 <0>         0.0788
     59 H25         0.3636   -3.8504   -0.6360 H         1 <0>         0.0654
     60 H26         2.1939    5.2740   -7.0779 H         1 <0>         0.4644
@<TRIPOS>BOND
     1    1    2 1
     2    1   40 1
     3    1   41 1
     4    1   42 1
     5    2    3 1
     6    2   43 1
     7    2   44 1
     8    3    4 1
     9    4    5 2
    10    4    6 1
    11    6    7 1
    12    6   13 1
    13    6    8 1
    14    8    9 1
    15    8   10 1
    16    8   39 1
    17   10   11 1
    18   10   12 1
    19   10   34 1
    20   12   13 1
    21   13   14 1
    22   13   15 1
    23   15   16 am
    24   15   45 1
    25   16   17 2
    26   16   18 1
    27   18   19 1
    28   18   46 1
    29   18   47 1
    30   19   20 1
    31   20   33 1
    32   20   21 2
    33   21   22 1
    34   22   23 1
    35   22   31 1
    36   22   24 1
    37   24   25 2
    38   24   32 1
    39   25   30 ar
    40   25   26 ar
    41   26   27 ar
    42   26   48 1
    43   27   28 ar
    44   27   49 1
    45   28   29 ar
    46   28   50 1
    47   29   30 ar
    48   29   51 1
    49   30   31 2
    50   31   60 1
    51   32   33 2
    52   34   35 2
    53   34   36 1
    54   36   37 1
    55   37   38 1
    56   37   52 1
    57   37   53 1
    58   38   54 1
    59   38   55 1
    60   38   56 1
    61   39   57 1
    62   39   58 1
    63   39   59 1
@<TRIPOS>MOLECULE
ZINC20206098
   58    61     0     0     0
SMALL
USER_CHARGES

@<TRIPOS>ATOM
      1 C1         -1.2172    2.1800   -0.5575 C.3       1 <0>         0.0257
      2 O1         -1.0782    0.7756   -0.3332 O.3       1 <0>        -0.3174
      3 C2         -2.1928    0.0123   -0.4885 C.ar      1 <0>         0.0959
      4 C3         -3.3928    0.6037   -0.8546 C.ar      1 <0>        -0.1670
      5 C4         -4.5251   -0.1716   -1.0122 C.ar      1 <0>        -0.1075
      6 C5         -4.4619   -1.5416   -0.8049 C.ar      1 <0>         0.0896
      7 C6         -3.2617   -2.1331   -0.4397 C.ar      1 <0>        -0.1680
      8 C7         -2.1285   -1.3583   -0.2862 C.ar      1 <0>        -0.1129
      9 O2         -5.5768   -2.3047   -0.9593 O.3       1 <0>        -0.3119
     10 C8         -5.4391   -3.7084   -0.7297 C.3       1 <0>         0.0649
     11 C9         -6.7881   -4.3959   -0.9496 C.3       1 <0>        -0.1226
     12 C10        -6.6406   -5.8988   -0.7038 C.3       1 <0>         0.0581
     13 O3         -7.9005   -6.5410   -0.9092 O.3       1 <0>        -0.2951
     14 C11        -7.9432   -7.8853   -0.7303 C.ar      1 <0>         0.2059
     15 C12        -6.7918   -8.5715   -0.3577 C.ar      1 <0>        -0.2250
     16 C13        -6.8288   -9.9295   -0.1750 C.ar      1 <0>        -0.0009
     17 C14        -8.0304  -10.6272   -0.3645 C.ar      1 <0>        -0.1929
     18 C15        -9.1876   -9.9299   -0.7401 C.ar      1 <0>         0.0016
     19 C16        -9.1394   -8.5711   -0.9146 C.ar      1 <0>        -0.1561
     20 C17        -8.0764  -12.0784   -0.1714 C.2       1 <0>         0.1980
     21 C18        -9.1666  -12.6574    0.4377 C.2       1 <0>        -0.3300
     22 C19        -9.3473  -14.1373    0.4876 C.cat     1 <0>         0.6139
     23 N1         -8.3537  -14.9809    0.5587 N.pl3     1 <0>        -0.6637
     24 N2        -10.6999  -14.5323    0.4509 N.pl3     1 <0>        -0.4950
     25 C20       -11.6585  -13.6288    0.8588 C.2       1 <0>         0.2784
     26 N3        -11.4606  -12.3738    1.1945 N.2       1 <0>        -0.4802
     27 C21       -10.2250  -11.8446    1.0871 C.2       1 <0>         0.5423
     28 O4         -9.9829  -10.7252    1.5084 O.2       1 <0>        -0.3859
     29 S1        -13.0694  -14.5143    0.7925 S.3       1 <0>         0.5219
     30 N4        -12.4634  -15.9448    0.1628 N.2       1 <0>        -0.3010
     31 C22       -11.1878  -15.7330    0.0602 C.2       1 <0>        -0.2583
     32 S2        -10.1151  -16.9793   -0.5730 S.o2      1 <0>         2.4683
     33 O5        -10.9596  -17.8326   -1.3332 O.2       1 <0>        -0.8324
     34 O6         -9.0572  -16.2644   -1.1967 O.2       1 <0>        -0.9073
     35 C23        -9.4998  -17.8534    0.8925 C.3       1 <0>        -0.6482
     36 H1         -0.2562    2.6698   -0.4007 H         1 <0>         0.1026
     37 H2         -1.5507    2.3533   -1.5806 H         1 <0>         0.0565
     38 H3         -1.9507    2.5881    0.1378 H         1 <0>         0.0565
     39 H4         -3.4420    1.6704   -1.0160 H         1 <0>         0.1376
     40 H5         -5.4596    0.2890   -1.2966 H         1 <0>         0.1356
     41 H6         -3.2127   -3.1998   -0.2779 H         1 <0>         0.1328
     42 H7         -1.1931   -1.8194   -0.0055 H         1 <0>         0.1351
     43 H8         -4.7046   -4.1195   -1.4223 H         1 <0>         0.0663
     44 H9         -5.1074   -3.8782    0.2946 H         1 <0>         0.0663
     45 H10        -7.5226   -3.9849   -0.2571 H         1 <0>         0.0910
     46 H11        -7.1197   -4.2261   -1.9740 H         1 <0>         0.0909
     47 H12        -5.9061   -6.3099   -1.3964 H         1 <0>         0.0760
     48 H13        -6.3089   -6.0687    0.3205 H         1 <0>         0.0760
     49 H14        -5.8669   -8.0331   -0.2124 H         1 <0>         0.1469
     50 H15        -5.9342  -10.4612    0.1139 H         1 <0>         0.1435
     51 H16       -10.1159  -10.4618   -0.8875 H         1 <0>         0.1291
     52 H17       -10.0309   -8.0324   -1.1999 H         1 <0>         0.1491
     53 H18        -7.2550  -12.6941   -0.5069 H         1 <0>         0.1639
     54 H19        -7.4406  -14.6623    0.4832 H         1 <0>         0.4651
     55 H20       -10.3150  -18.4136    1.3504 H         1 <0>         0.1742
     56 H21        -8.7064  -18.5408    0.5991 H         1 <0>         0.1772
     57 H22        -9.1082  -17.1310    1.6087 H         1 <0>         0.1273
     58 H23        -8.5284  -15.9264    0.6870 H         1 <0>         0.4152
@<TRIPOS>BOND
     1    1    2 1
     2    1   36 1
     3    1   37 1
     4    1   38 1
     5    2    3 1
     6    3    8 ar
     7    3    4 ar
     8    4    5 ar
     9    4   39 1
    10    5    6 ar
    11    5   40 1
    12    6    7 ar
    13    6    9 1
    14    7    8 ar
    15    7   41 1
    16    8   42 1
    17    9   10 1
    18   10   11 1
    19   10   43 1
    20   10   44 1
    21   11   12 1
    22   11   45 1
    23   11   46 1
    24   12   13 1
    25   12   47 1
    26   12   48 1
    27   13   14 1
    28   14   19 ar
    29   14   15 ar
    30   15   16 ar
    31   15   49 1
    32   16   17 ar
    33   16   50 1
    34   17   18 ar
    35   17   20 1
    36   18   19 ar
    37   18   51 1
    38   19   52 1
    39   20   21 2
    40   20   53 1
    41   21   27 1
    42   21   22 1
    43   22   23 2
    44   22   24 1
    45   23   54 1
    46   23   58 1
    47   24   31 1
    48   24   25 1
    49   25   26 2
    50   25   29 1
    51   26   27 1
    52   27   28 2
    53   29   30 1
    54   30   31 2
    55   31   32 1
    56   32   33 2
    57   32   34 2
    58   32   35 1
    59   35   55 1
    60   35   56 1
    61   35   57 1
@<TRIPOS>MOLECULE
ZINC08300126
   51    54     0     0     0
SMALL
USER_CHARGES
[6-[[4-(aminomethyl)triazol-1-yl]methyl]quinuclidin-3-yl]-pyrrolidin-1-yl-methanone
@<TRIPOS>ATOM
      1 C1         -0.4340    2.6758   -4.9309 C.2       1 <0>        -0.0081
      2 C2         -0.9215    3.1591   -6.0974 C.2       1 <0>        -0.0905
      3 N1         -2.0477    2.4820   -6.3480 N.2       1 <0>        -0.2188
      4 N2         -2.2419    1.6323   -5.4020 N.2       1 <0>        -0.0475
      5 N3         -1.2965    1.7123   -4.5323 N.pl3     1 <0>        -0.3101
      6 C3         -1.1778    0.9035   -3.3166 C.3       1 <0>         0.0895
      7 C4         -2.4574    1.0368   -2.4884 C.3       1 <0>         0.0218
      8 H1         -3.3179    0.7720   -3.1029 H         1 <0>         0.1593
      9 C5         -2.3842    0.0988   -1.2803 C.3       1 <0>        -0.1410
     10 C6         -2.4837    0.9341    0.0023 C.3       1 <0>        -0.0774
     11 H2         -2.4354    0.2954    0.8842 H         1 <0>         0.1346
     12 C7         -3.8091    1.7060   -0.0181 C.3       1 <0>        -0.1392
     13 C8         -3.8423    2.5991   -1.2615 C.3       1 <0>        -0.0013
     14 C9         -1.4311    2.8312   -1.2254 C.3       1 <0>        -0.0059
     15 C10        -1.3296    1.9443    0.0189 C.3       1 <0>        -0.1207
     16 H3         -1.3954    2.5623    0.9144 H         1 <0>         0.1411
     17 C11        -0.0144    1.2086    0.0087 C.2       1 <0>         0.5205
     18 O1          0.0021   -0.0041    0.0020 O.2       1 <0>        -0.5078
     19 N4          1.1435    1.8983    0.0013 N.am      1 <0>        -0.6159
     20 C12         1.2683    3.3632    0.0016 C.3       1 <0>         0.0891
     21 C13         2.7750    3.6948   -0.0333 C.3       1 <0>        -0.1358
     22 C14         3.3987    2.4057   -0.6305 C.3       1 <0>        -0.1341
     23 C15         2.4947    1.3088   -0.0147 C.3       1 <0>         0.0987
     24 C16        -0.3175    4.2494   -6.9443 C.3       1 <0>         0.0991
     25 H4          0.4637    2.9938   -4.4216 H         1 <0>         0.2089
     26 H5         -0.3276    1.2517   -2.7301 H         1 <0>         0.1303
     27 H6         -1.0282   -0.1414   -3.5884 H         1 <0>         0.1573
     28 H7         -1.4366   -0.4397   -1.2929 H         1 <0>         0.1308
     29 H8         -3.2091   -0.6128   -1.3176 H         1 <0>         0.1195
     30 H9         -3.8861    2.3232    0.8770 H         1 <0>         0.1094
     31 H10        -4.6423    1.0040   -0.0504 H         1 <0>         0.1137
     32 H11        -3.9388    3.6416   -0.9580 H         1 <0>         0.1366
     33 H12        -4.6914    2.3220   -1.8862 H         1 <0>         0.1359
     34 H13        -1.5446    3.8719   -0.9218 H         1 <0>         0.1484
     35 H14        -0.5265    2.7232   -1.8238 H         1 <0>         0.1207
     36 H15         0.7752    3.7774   -0.8778 H         1 <0>         0.0612
     37 H16         0.8214    3.7732    0.9073 H         1 <0>         0.0808
     38 H17         3.1566    3.8783    0.9711 H         1 <0>         0.0895
     39 H18         2.9669    4.5513   -0.6796 H         1 <0>         0.0894
     40 H19         4.4329    2.2863   -0.3078 H         1 <0>         0.0971
     41 H20         3.3284    2.4047   -1.7183 H         1 <0>         0.0732
     42 H21         2.8188    1.0753    0.9994 H         1 <0>         0.0825
     43 H22         2.5101    0.4124   -0.6346 H         1 <0>         0.0856
     44 H23        -1.1133    4.8389   -7.3995 H         1 <0>         0.1550
     45 H24         0.3006    4.8943   -6.3197 H         1 <0>         0.1554
     46 H25         0.9275    4.3598   -8.5802 H         1 <0>         0.4504
     47 H26         1.2168    3.0452   -7.6035 H         1 <0>         0.4371
     48 N5         -2.5984    2.4399   -2.0447 N.4       1 <0>        -0.3922
     49 H27        -2.6444    3.0478   -2.8708 H         1 <0>         0.4232
     50 N6          0.4932    3.6354   -8.0107 N.4       1 <0>        -0.6463
     51 H28        -0.1131    3.0594   -8.6064 H         1 <0>         0.4469
@<TRIPOS>BOND
     1    1    5 1
     2    1    2 2
     3    1   25 1
     4    2    3 1
     5    2   24 1
     6    3    4 2
     7    4    5 1
     8    5    6 1
     9    6    7 1
    10    6   26 1
    11    6   27 1
    12    7    8 1
    13    7    9 1
    14    7   48 1
    15    9   10 1
    16    9   28 1
    17    9   29 1
    18   10   11 1
    19   10   15 1
    20   10   12 1
    21   12   13 1
    22   12   30 1
    23   12   31 1
    24   13   32 1
    25   13   33 1
    26   13   48 1
    27   14   15 1
    28   14   34 1
    29   14   35 1
    30   14   48 1
    31   15   16 1
    32   15   17 1
    33   17   18 2
    34   17   19 am
    35   19   23 1
    36   19   20 1
    37   20   21 1
    38   20   36 1
    39   20   37 1
    40   21   22 1
    41   21   38 1
    42   21   39 1
    43   22   23 1
    44   22   40 1
    45   22   41 1
    46   23   42 1
    47   23   43 1
    48   24   44 1
    49   24   45 1
    50   24   50 1
    51   46   50 1
    52   47   50 1
    53   48   49 1
    54   50   51 1
@<TRIPOS>MOLECULE
ZINC39387855
   59    60     0     0     0
SMALL
USER_CHARGES

@<TRIPOS>ATOM
      1 C1         -0.0685    1.5172    0.0370 C.3       1 <0>        -0.1603
      2 C2         -0.0302   -0.0122    0.0181 C.3       1 <0>        -0.1215
      3 C3          0.7093   -0.5192    1.2579 C.3       1 <0>        -0.1501
      4 C4          0.7475   -2.0486    1.2390 C.3       1 <0>        -0.0130
      5 N1          1.4575   -2.5354    2.4293 N.4       1 <0>        -0.3906
      6 C5          0.6949   -2.1806    3.6336 C.3       1 <0>        -0.0596
      7 C6          1.5993   -3.9955    2.3519 C.3       1 <0>         0.0291
      8 C7          2.4332   -4.4812    3.5094 C.2       1 <0>         0.1103
      9 N2          3.7312   -4.1049    3.5974 N.am      1 <0>        -0.6019
     10 C8          4.5069   -4.5191    4.6171 C.2       1 <0>         0.5434
     11 O1          5.6730   -4.1697    4.6792 O.2       1 <0>        -0.5305
     12 C9          3.9626   -5.3631    5.6194 C.2       1 <0>        -0.2410
     13 C10         2.6263   -5.7458    5.5225 C.2       1 <0>         0.0606
     14 C11         1.8677   -5.2834    4.4474 C.2       1 <0>        -0.1637
     15 C12         4.7943   -5.8262    6.7406 C.2       1 <0>         0.5768
     16 O2          4.2922   -6.4608    7.6489 O.2       1 <0>        -0.5176
     17 N3          6.1128   -5.5476    6.7617 N.am      1 <0>        -0.7204
     18 C13         6.9619   -6.1022    7.8188 C.3       1 <0>         0.1669
     19 C14         8.3826   -5.6426    7.6150 C.2       1 <0>        -0.0813
     20 C15         8.9446   -4.6090    8.1886 C.2       1 <0>        -0.0653
     21 N4         10.2717   -4.4531    7.7789 N.4       1 <0>        -0.3416
     22 N5         10.6935   -5.7226    7.1803 N.3       1 <0>        -0.2927
     23 C16         9.4092   -6.3012    6.7156 C.3       1 <0>         0.0455
     24 H1          9.4019   -7.3827    6.8511 H         1 <0>         0.1419
     25 C17         9.1563   -5.9376    5.2511 C.3       1 <0>        -0.1408
     26 C18        11.3244   -6.5928    8.1816 C.3       1 <0>        -0.0472
     27 C19         8.2479   -3.7007    9.1687 C.3       1 <0>        -0.1133
     28 H2          0.9497    1.9062    0.0371 H         1 <0>         0.0592
     29 H3         -0.5954    1.8784   -0.8462 H         1 <0>         0.0698
     30 H4         -0.5872    1.8567    0.9336 H         1 <0>         0.0600
     31 H5         -1.0485   -0.4011    0.0180 H         1 <0>         0.0757
     32 H6          0.4884   -0.3516   -0.8785 H         1 <0>         0.0746
     33 H7          1.7275   -0.1302    1.2579 H         1 <0>         0.0863
     34 H8          0.1906   -0.1797    2.1545 H         1 <0>         0.0896
     35 H9         -0.2707   -2.4375    1.2389 H         1 <0>         0.1391
     36 H10         1.2662   -2.3880    0.3424 H         1 <0>         0.1359
     37 H11         0.5897   -1.0972    3.6910 H         1 <0>         0.1332
     38 H12        -0.2927   -2.6395    3.5866 H         1 <0>         0.1340
     39 H13         1.2217   -2.5418    4.5168 H         1 <0>         0.1211
     40 H14         0.6136   -4.4589    2.3944 H         1 <0>         0.1689
     41 H15         2.0869   -4.2640    1.4148 H         1 <0>         0.1573
     42 H16         2.1840   -6.3876    6.2701 H         1 <0>         0.1706
     43 H17         0.8294   -5.5671    4.3589 H         1 <0>         0.1741
     44 H18         6.4995   -4.9798    6.0769 H         1 <0>         0.4179
     45 H19         6.6046   -5.7586    8.7896 H         1 <0>         0.1022
     46 H20         6.9234   -7.1909    7.7821 H         1 <0>         0.1018
     47 H21        10.3352   -3.7136    7.0954 H         1 <0>         0.4502
     48 H22         9.2220   -4.8565    5.1286 H         1 <0>         0.0686
     49 H23         9.9043   -6.4206    4.6224 H         1 <0>         0.0926
     50 H24         8.1624   -6.2766    4.9590 H         1 <0>         0.0872
     51 H25        10.6126   -6.8042    8.9796 H         1 <0>         0.0777
     52 H26        11.6299   -7.5270    7.7103 H         1 <0>         0.1385
     53 H27        12.1990   -6.0929    8.5979 H         1 <0>         0.1141
     54 H28         8.3900   -4.0806   10.1804 H         1 <0>         0.1050
     55 H29         8.6669   -2.6971    9.0952 H         1 <0>         0.0940
     56 H30         7.1828   -3.6674    8.9394 H         1 <0>         0.1060
     57 H31         4.1081   -3.5279    2.9148 H         1 <0>         0.4188
     58 H32         2.3717   -2.1106    2.4728 H         1 <0>         0.4200
     59 H33        10.8536   -4.2388    8.5748 H         1 <0>         0.4338
@<TRIPOS>BOND
     1    1    2 1
     2    1   28 1
     3    1   29 1
     4    1   30 1
     5    2    3 1
     6    2   31 1
     7    2   32 1
     8    3    4 1
     9    3   33 1
    10    3   34 1
    11    4    5 1
    12    4   35 1
    13    4   36 1
    14    5    6 1
    15    5    7 1
    16    5   58 1
    17    6   37 1
    18    6   38 1
    19    6   39 1
    20    7    8 1
    21    7   40 1
    22    7   41 1
    23    8   14 2
    24    8    9 1
    25    9   10 am
    26    9   57 1
    27   10   11 2
    28   10   12 1
    29   12   13 2
    30   12   15 1
    31   13   14 1
    32   13   42 1
    33   14   43 1
    34   15   16 2
    35   15   17 am
    36   17   18 1
    37   17   44 1
    38   18   19 1
    39   18   45 1
    40   18   46 1
    41   19   23 1
    42   19   20 2
    43   20   21 1
    44   20   27 1
    45   21   22 1
    46   21   47 1
    47   21   59 1
    48   22   23 1
    49   22   26 1
    50   23   24 1
    51   23   25 1
    52   25   48 1
    53   25   49 1
    54   25   50 1
    55   26   51 1
    56   26   52 1
    57   26   53 1
    58   27   54 1
    59   27   55 1
    60   27   56 1
@<TRIPOS>MOLECULE
ZINC39988295
   52    55     0     0     0
SMALL
USER_CHARGES

@<TRIPOS>ATOM
      1 C1         -0.0169    1.3938    0.0097 C.ar      1 <0>        -0.1352
      2 C2          1.1286    2.1208    0.0027 C.ar      1 <0>        -0.0299
      3 C3          2.3772    1.4605   -0.0128 C.ar      1 <0>        -0.1395
      4 C4          3.6892    1.9280   -0.0228 C.2       1 <0>         0.1198
      5 C5          4.5614    0.6921   -0.0377 C.3       1 <0>         0.0718
      6 N1          3.6439   -0.4514   -0.0350 N.pl3     1 <0>        -0.5868
      7 C6          2.4030   -0.0127   -0.0209 C.ar      1 <0>         0.3153
      8 C7          1.1619   -0.7036   -0.0123 C.ar      1 <0>        -0.1990
      9 C8          0.0021   -0.0041    0.0020 C.ar      1 <0>         0.0427
     10 C9          4.1129    3.2647   -0.0201 C.2       1 <0>         0.0450
     11 N2          5.3915    3.5461   -0.0307 N.2       1 <0>        -0.1371
     12 N3          5.8148    4.8816   -0.0280 N.am      1 <0>        -0.5602
     13 C10         7.1310    5.1714   -0.0389 C.2       1 <0>         0.5349
     14 O1          7.9488    4.2762   -0.0511 O.2       1 <0>        -0.4780
     15 C11         7.5864    6.6079   -0.0360 C.3       1 <0>        -0.1228
     16 C12         9.1155    6.6583   -0.0502 C.3       1 <0>        -0.1228
     17 C13         9.5709    8.0948   -0.0473 C.2       1 <0>         0.5350
     18 O2          8.7531    8.9900   -0.0351 O.2       1 <0>        -0.4780
     19 N4         10.8871    8.3845   -0.0582 N.am      1 <0>        -0.5601
     20 N5         11.3104    9.7200   -0.0555 N.2       1 <0>        -0.1371
     21 C14        12.5890   10.0015   -0.0661 C.2       1 <0>         0.0450
     22 C15        13.0127   11.3382   -0.0634 C.2       1 <0>         0.1198
     23 C16        14.3246   11.8057   -0.0791 C.ar      1 <0>        -0.1395
     24 C17        14.2989   13.2789   -0.0696 C.ar      1 <0>         0.3153
     25 N6         13.0580   13.7176   -0.0494 N.pl3     1 <0>        -0.5869
     26 C18        12.1404   12.5741   -0.0496 C.3       1 <0>         0.0718
     27 C19        15.5400   13.9698   -0.0833 C.ar      1 <0>        -0.1990
     28 C20        16.6996   13.2703   -0.1044 C.ar      1 <0>         0.0427
     29 C21        16.7186   11.8724   -0.1138 C.ar      1 <0>        -0.1352
     30 C22        15.5732   11.1454   -0.1008 C.ar      1 <0>        -0.0299
     31 H1         -0.9667    1.9076    0.0261 H         1 <0>         0.1578
     32 H2          1.0859    3.1999    0.0085 H         1 <0>         0.1569
     33 H3          5.1765    0.6777   -0.9375 H         1 <0>         0.1773
     34 H4          5.1935    0.6681    0.8500 H         1 <0>         0.1773
     35 H5          1.1430   -1.7834   -0.0175 H         1 <0>         0.1624
     36 H6         -0.9347   -0.5415    0.0084 H         1 <0>         0.1628
     37 H7          3.3845    4.0620   -0.0092 H         1 <0>         0.1600
     38 H8          5.1606    5.5978   -0.0183 H         1 <0>         0.4082
     39 H9          7.1980    7.1140   -0.9199 H         1 <0>         0.1202
     40 H10         7.2148    7.1051    0.8600 H         1 <0>         0.1202
     41 H11         9.5039    6.1522    0.8337 H         1 <0>         0.1202
     42 H12         9.4871    6.1611   -0.9462 H         1 <0>         0.1202
     43 H13        11.5413    7.6684   -0.0679 H         1 <0>         0.4082
     44 H14        13.3174    9.2042   -0.0770 H         1 <0>         0.1600
     45 H15        11.5086   12.5974   -0.9374 H         1 <0>         0.1776
     46 H16        11.5252   12.5891    0.8501 H         1 <0>         0.1769
     47 H17        15.5588   15.0496   -0.0773 H         1 <0>         0.1624
     48 H18        17.6364   13.8077   -0.1147 H         1 <0>         0.1628
     49 H19        17.6683   11.3586   -0.1311 H         1 <0>         0.1578
     50 H20        15.6158   10.0663   -0.1078 H         1 <0>         0.1569
     51 H21         3.9095   -1.3843   -0.0432 H         1 <0>         0.4559
     52 H22        12.7924   14.6505   -0.0394 H         1 <0>         0.4559
@<TRIPOS>BOND
     1    1    9 ar
     2    1    2 ar
     3    1   31 1
     4    2    3 ar
     5    2   32 1
     6    3    7 ar
     7    3    4 2
     8    4    5 1
     9    4   10 1
    10    5    6 1
    11    5   33 1
    12    5   34 1
    13    6    7 2
    14    6   51 1
    15    7    8 ar
    16    8    9 ar
    17    8   35 1
    18    9   36 1
    19   10   11 2
    20   10   37 1
    21   11   12 1
    22   12   13 am
    23   12   38 1
    24   13   14 2
    25   13   15 1
    26   15   16 1
    27   15   39 1
    28   15   40 1
    29   16   17 1
    30   16   41 1
    31   16   42 1
    32   17   18 2
    33   17   19 am
    34   19   20 1
    35   19   43 1
    36   20   21 2
    37   21   22 1
    38   21   44 1
    39   22   26 1
    40   22   23 2
    41   23   30 ar
    42   23   24 ar
    43   24   25 2
    44   24   27 ar
    45   25   26 1
    46   25   52 1
    47   26   45 1
    48   26   46 1
    49   27   28 ar
    50   27   47 1
    51   28   29 ar
    52   28   48 1
    53   29   30 ar
    54   29   49 1
    55   30   50 1
@<TRIPOS>MOLECULE
ZINC39795294
   40    42     0     0     0
SMALL
USER_CHARGES

@<TRIPOS>ATOM
      1 C1         -0.0796   -1.0595    0.3295 C.1       1 <0>        -0.1403
      2 C2         -0.0769    0.1131    0.2729 C.1       1 <0>        -0.2351
      3 C3         -0.0736    1.5834    0.2018 C.3       1 <0>         0.2332
      4 N1          1.3086    2.0675    0.1665 N.am      1 <0>        -0.7200
      5 C4          1.5579    3.3904    0.1005 C.2       1 <0>         0.5491
      6 O1          0.6355    4.1821    0.0702 O.2       1 <0>        -0.5178
      7 C5          2.9498    3.8778    0.0649 C.ar      1 <0>        -0.1166
      8 C6          4.0113    2.9686    0.0938 C.ar      1 <0>        -0.0694
      9 C7          5.3086    3.4264    0.0601 C.ar      1 <0>        -0.1229
     10 C8          5.5644    4.7935   -0.0024 C.ar      1 <0>         0.1255
     11 C9          4.5095    5.7015   -0.0308 C.ar      1 <0>        -0.1593
     12 C10         3.2100    5.2496   -0.0036 C.ar      1 <0>        -0.0374
     13 N2          6.8763    5.2529   -0.0359 N.pl3     1 <0>        -1.0236
     14 S1          7.3185    6.4165   -1.1281 S.o2      1 <0>         2.6524
     15 O2          6.3969    7.4873   -0.9762 O.2       1 <0>        -0.8791
     16 O3          8.7215    6.5931   -0.9877 O.2       1 <0>        -0.8763
     17 C11         7.0535    5.7485   -2.7369 C.ar      1 <0>        -0.5423
     18 C12         8.0930    4.9223   -3.3392 C.ar      1 <0>         0.1488
     19 C13         7.9534    4.3797   -4.5683 C.ar      1 <0>        -0.1422
     20 C14         6.7283    4.6201   -5.3278 C.ar      1 <0>         0.3734
     21 N3          6.2852    4.2572   -6.5052 N.am      1 <0>        -0.4950
     22 C15         5.0348    4.8001   -6.6847 C.2       1 <0>         0.6449
     23 O4          4.3469    4.6550   -7.6729 O.2       1 <0>        -0.1972
     24 N4          4.6812    5.5320   -5.5757 N.am      1 <0>        -0.4537
     25 C16         5.6605    5.4687   -4.7091 C.ar      1 <0>         0.3964
     26 C17         5.8914    6.0127   -3.3724 C.ar      1 <0>        -0.0113
     27 H1         -0.0819   -2.1083    0.3802 H         1 <0>         0.2261
     28 H2         -0.5943    1.9047   -0.7003 H         1 <0>         0.0969
     29 H3         -0.5789    1.9906    1.0775 H         1 <0>         0.1006
     30 H4          2.0445    1.4359    0.1907 H         1 <0>         0.4032
     31 H5          3.8134    1.9080    0.1430 H         1 <0>         0.1414
     32 H6          6.1291    2.7245    0.0824 H         1 <0>         0.1465
     33 H7          4.7112    6.7614   -0.0789 H         1 <0>         0.1699
     34 H8          2.3919    5.9543   -0.0305 H         1 <0>         0.1569
     35 H9          7.5326    4.8919    0.5805 H         1 <0>         0.4492
     36 H10         9.0023    4.7390   -2.7861 H         1 <0>         0.2329
     37 H11         8.7422    3.7723   -4.9870 H         1 <0>         0.2344
     38 H12         5.1392    6.6251   -2.8974 H         1 <0>         0.2406
     39 H13         3.8477    6.0134   -5.4557 H         1 <0>         0.5094
     40 H14         6.7587    3.7002   -7.1426 H         1 <0>         0.5078
@<TRIPOS>BOND
     1    1    2 3
     2    1   27 1
     3    2    3 1
     4    3    4 1
     5    3   28 1
     6    3   29 1
     7    4    5 am
     8    4   30 1
     9    5    6 2
    10    5    7 1
    11    7   12 ar
    12    7    8 ar
    13    8    9 ar
    14    8   31 1
    15    9   10 ar
    16    9   32 1
    17   10   11 ar
    18   10   13 1
    19   11   12 ar
    20   11   33 1
    21   12   34 1
    22   13   14 1
    23   13   35 1
    24   14   15 2
    25   14   16 2
    26   14   17 1
    27   17   26 ar
    28   17   18 ar
    29   18   19 ar
    30   18   36 1
    31   19   20 ar
    32   19   37 1
    33   20   25 ar
    34   20   21 2
    35   21   22 am
    36   21   40 1
    37   22   23 2
    38   22   24 am
    39   24   25 2
    40   24   39 1
    41   25   26 ar
    42   26   38 1
@<TRIPOS>MOLECULE
ZINC64450387
   53    57     0     0     0
SMALL
USER_CHARGES

@<TRIPOS>ATOM
      1 C1         -0.0187    1.5258    0.0104 C.3       1 <0>        -0.1667
      2 C2          0.0021   -0.0041    0.0020 C.3       1 <0>         0.1217
      3 N1         -1.3723   -0.5112    0.0124 N.pl3     1 <0>        -0.3562
      4 C3         -1.9075   -1.3725   -0.8779 C.2       1 <0>         0.0753
      5 C4         -3.1944   -1.5889   -0.5201 C.2       1 <0>        -0.2653
      6 C5         -3.4546   -0.8340    0.6282 C.2       1 <0>         0.0872
      7 N2         -2.3613   -0.1922    0.9518 N.2       1 <0>        -0.2737
      8 C6         -4.7658   -0.7753    1.3688 C.3       1 <0>        -0.0797
      9 C7         -4.1744   -2.4845   -1.2334 C.3       1 <0>         0.0813
     10 H1         -5.1377   -2.4666   -0.7236 H         1 <0>         0.1051
     11 C8         -3.6330   -3.9213   -1.2901 C.3       1 <0>        -0.1253
     12 C9         -4.2298   -4.6991   -2.4177 C.2       1 <0>         0.5302
     13 O1         -4.1488   -5.9065   -2.3362 O.2       1 <0>        -0.5041
     14 N3         -4.8415   -4.2225   -3.5034 N.am      1 <0>        -0.7033
     15 C10        -5.2115   -2.8200   -3.6362 C.3       1 <0>         0.2773
     16 H2         -6.2652   -2.6804   -3.3946 H         1 <0>         0.0795
     17 C11        -4.3367   -2.0395   -2.6653 C.2       1 <0>        -0.2206
     18 C12        -3.8236   -1.0440   -3.3277 C.2       1 <0>         0.1613
     19 N4         -4.1595   -1.1060   -4.6712 N.pl3     1 <0>        -0.5549
     20 N5         -4.9067   -2.2431   -4.9486 N.3       1 <0>        -0.2125
     21 C13        -6.1386   -1.9117   -5.6769 C.3       1 <0>         0.3691
     22 N6         -6.9625   -0.9925   -4.8817 N.pl3     1 <0>        -0.5102
     23 C14        -8.0977   -1.5861   -4.6506 C.ar      1 <0>         0.3062
     24 C15        -9.3072   -1.1800   -3.9217 C.ar      1 <0>        -0.1359
     25 C16       -10.3543   -2.0258   -3.8472 C.ar      1 <0>         0.0296
     26 C17       -10.3440   -3.2994   -4.4433 C.ar      1 <0>         0.0366
     27 C18        -9.2863   -3.7700   -5.1340 C.ar      1 <0>        -0.1369
     28 C19        -8.0870   -2.9340   -5.2820 C.ar      1 <0>         0.3154
     29 N7         -6.9456   -3.1216   -5.8790 N.pl3     1 <0>        -0.4754
     30 C20        -2.9738    0.0381   -2.7130 C.3       1 <0>        -0.1203
     31 H3          1.0039    1.9031    0.0027 H         1 <0>         0.0836
     32 H4         -0.5459    1.8868   -0.8726 H         1 <0>         0.0579
     33 H5         -0.5289    1.8773    0.9072 H         1 <0>         0.0750
     34 H6          0.5123   -0.3556   -0.8948 H         1 <0>         0.0999
     35 H7          0.5293   -0.3651    0.8851 H         1 <0>         0.0957
     36 H8         -1.3997   -1.8104   -1.7246 H         1 <0>         0.1709
     37 H9         -4.7859   -1.5514    2.1340 H         1 <0>         0.0848
     38 H10        -4.8738    0.2018    1.8395 H         1 <0>         0.0801
     39 H11        -5.5860   -0.9341    0.6687 H         1 <0>         0.0701
     40 H12        -2.5508   -3.8877   -1.4161 H         1 <0>         0.1168
     41 H13        -3.8636   -4.4244   -0.3511 H         1 <0>         0.1256
     42 H14        -5.0469   -4.8314   -4.2300 H         1 <0>         0.4020
     43 H15        -3.9095   -0.4414   -5.3321 H         1 <0>         0.4557
     44 H16        -5.8944   -1.4599   -6.6384 H         1 <0>         0.2480
     45 H17        -9.3568   -0.2105   -3.4484 H         1 <0>         0.2039
     46 H18       -11.2361   -1.7129   -3.3079 H         1 <0>         0.2033
     47 H19       -11.2183   -3.9256   -4.3436 H         1 <0>         0.2041
     48 H20        -9.3202   -4.7551   -5.5755 H         1 <0>         0.2062
     49 H21        -1.9255   -0.2585   -2.7493 H         1 <0>         0.0999
     50 H22        -3.1083    0.9658   -3.2692 H         1 <0>         0.0800
     51 H23        -3.2727    0.1897   -1.6758 H         1 <0>         0.1169
     52 H24        -6.7074   -0.1056   -4.5829 H         1 <0>         0.4882
     53 H25        -6.6774   -3.9152   -6.3681 H         1 <0>         0.4967
@<TRIPOS>BOND
     1    1    2 1
     2    1   31 1
     3    1   32 1
     4    1   33 1
     5    2    3 1
     6    2   34 1
     7    2   35 1
     8    3    7 1
     9    3    4 1
    10    4    5 2
    11    4   36 1
    12    5    6 1
    13    5    9 1
    14    6    7 2
    15    6    8 1
    16    8   37 1
    17    8   38 1
    18    8   39 1
    19    9   10 1
    20    9   17 1
    21    9   11 1
    22   11   12 1
    23   11   40 1
    24   11   41 1
    25   12   13 2
    26   12   14 am
    27   14   15 1
    28   14   42 1
    29   15   16 1
    30   15   20 1
    31   15   17 1
    32   17   18 2
    33   18   19 1
    34   18   30 1
    35   19   20 1
    36   19   43 1
    37   20   21 1
    38   21   29 1
    39   21   22 1
    40   21   44 1
    41   22   23 2
    42   22   52 1
    43   23   28 ar
    44   23   24 ar
    45   24   25 ar
    46   24   45 1
    47   25   26 ar
    48   25   46 1
    49   26   27 ar
    50   26   47 1
    51   27   28 ar
    52   27   48 1
    53   28   29 2
    54   29   53 1
    55   30   49 1
    56   30   50 1
    57   30   51 1
@<TRIPOS>MOLECULE
ZINC08123000
   25    26     0     0     0
SMALL
USER_CHARGES
4-bromo-N'-[(5-chloro-2-thienyl)carbonyl]-1H-pyrrole-2-carbohydrazide
@<TRIPOS>ATOM
      1 C1          1.2088   -0.6567   -0.0130 C.2       1 <0>        -0.0467
      2 C2          0.0021   -0.0041    0.0020 C.2       1 <0>        -0.1627
      3 C3         -0.0164    1.3566    0.0095 C.2       1 <0>        -0.1228
      4 S1          1.6659    1.7751   -0.0043 S.3       1 <0>         0.2058
      5 C4          2.3517    0.1282   -0.0197 C.2       1 <0>        -0.2403
      6 C5          3.7563   -0.2867   -0.0360 C.2       1 <0>         0.6129
      7 O1          4.0413   -1.4700   -0.0458 O.2       1 <0>        -0.5203
      8 N1          4.7332    0.6418   -0.0403 N.am      1 <0>        -0.5135
      9 N2          6.0767    0.2450   -0.0559 N.am      1 <0>        -0.5210
     10 C6          7.0536    1.1735   -0.0601 C.2       1 <0>         0.5968
     11 O2          6.7686    2.3566   -0.0503 O.2       1 <0>        -0.5161
     12 C7          8.4601    0.7581   -0.0764 C.2       1 <0>        -0.0468
     13 C8          9.5566    1.5941   -0.0884 C.2       1 <0>        -0.0592
     14 C9         10.6941    0.7800   -0.0984 C.2       1 <0>        -0.1846
     15 C10        10.2813   -0.5106   -0.1019 C.2       1 <0>         0.0794
     16 N3          8.9256   -0.5372   -0.0887 N.pl3     1 <0>        -0.5322
     17 H1          8.3755   -1.3361   -0.0876 H         1 <0>         0.4250
     18 Br1        12.4890    1.3750   -0.1126 Br        1 <0>        -0.0159
     19 Cl1        -1.3913    2.4164    0.0222 Cl        1 <0>         0.0340
     20 H2          1.2659   -1.7352   -0.0190 H         1 <0>         0.1602
     21 H3         -0.9218   -0.5633    0.0082 H         1 <0>         0.1547
     22 H4          4.5060    1.5849   -0.0325 H         1 <0>         0.4347
     23 H5          6.3038   -0.6980   -0.0637 H         1 <0>         0.4288
     24 H6          9.5403    2.6739   -0.0878 H         1 <0>         0.1626
     25 H7         10.9266   -1.3766   -0.1139 H         1 <0>         0.1872
@<TRIPOS>BOND
     1    1    5 2
     2    1    2 1
     3    1   20 1
     4    2    3 2
     5    2   21 1
     6    3    4 1
     7    3   19 1
     8    4    5 1
     9    5    6 1
    10    6    7 2
    11    6    8 am
    12    8    9 1
    13    8   22 1
    14    9   10 am
    15    9   23 1
    16   10   11 2
    17   10   12 1
    18   12   16 1
    19   12   13 2
    20   13   14 1
    21   13   24 1
    22   14   15 2
    23   14   18 1
    24   15   16 1
    25   15   25 1
    26   16   17 1
@<TRIPOS>MOLECULE
ZINC21917124
   40    41     0     0     0
SMALL
USER_CHARGES
N-[(1S)-1-(2-fluorophenyl)ethyl]-2-methyl-5-sulfamoyl-benzamide
@<TRIPOS>ATOM
      1 C1          4.1225    3.5040   -0.9814 C.3       1 <0>        -0.1223
      2 C2          2.9651    4.4519   -0.8001 C.ar      1 <0>         0.0355
      3 C3          3.1578    5.8118   -0.9326 C.ar      1 <0>        -0.1466
      4 C4          2.0976    6.6837   -0.7608 C.ar      1 <0>         0.0032
      5 C5          0.8365    6.1987   -0.4614 C.ar      1 <0>        -0.6784
      6 C6          0.6290    4.8412   -0.3324 C.ar      1 <0>         0.0228
      7 C7          1.6947    3.9560   -0.5040 C.ar      1 <0>        -0.1579
      8 C8          1.4797    2.4997   -0.3666 C.2       1 <0>         0.5635
      9 O1          2.3815    1.7255   -0.6213 O.2       1 <0>        -0.5265
     10 N1          0.2838    2.0306    0.0411 N.am      1 <0>        -0.7350
     11 C9          0.0707    0.5876    0.1773 C.3       1 <0>         0.1887
     12 H1          0.6621    0.0899   -0.6053 H         1 <0>         0.1046
     13 C10         0.5125    0.1360    1.5708 C.3       1 <0>        -0.1576
     14 C11        -1.3915    0.2756   -0.0118 C.ar      1 <0>        -0.1263
     15 C12        -2.3437    1.2443    0.2439 C.ar      1 <0>        -0.0902
     16 C13        -3.6846    0.9603    0.0651 C.ar      1 <0>        -0.1202
     17 C14        -4.0756   -0.2964   -0.3587 C.ar      1 <0>        -0.0896
     18 C15        -3.1258   -1.2681   -0.6095 C.ar      1 <0>        -0.1471
     19 C16        -1.7818   -0.9829   -0.4362 C.ar      1 <0>         0.1083
     20 F1         -0.8523   -1.9324   -0.6806 F         1 <0>        -0.1339
     21 S1         -0.5071    7.3179   -0.2452 S.o2      1 <0>         2.6365
     22 O2         -0.1685    8.5011   -0.9556 O.2       1 <0>        -0.9822
     23 O3         -1.6942    6.5833   -0.5107 O.2       1 <0>        -0.9503
     24 N2         -0.5516    7.7254    1.3592 N.pl3     1 <0>        -1.1624
     25 H2          5.0338    4.0771   -1.2075 H         1 <0>         0.0655
     26 H3          3.9064    2.8161   -1.8121 H         1 <0>         0.0937
     27 H4          4.2721    2.9270   -0.0569 H         1 <0>         0.0881
     28 H5          4.1394    6.1966   -1.1664 H         1 <0>         0.1438
     29 H6          2.2546    7.7474   -0.8612 H         1 <0>         0.1477
     30 H7         -0.3556    4.4640   -0.0987 H         1 <0>         0.1415
     31 H8         -0.5323    2.7313    0.2716 H         1 <0>         0.4159
     32 H9          0.3525   -0.9475    1.6730 H         1 <0>         0.0706
     33 H10        -0.0772    0.6672    2.3325 H         1 <0>         0.0630
     34 H11         1.5798    0.3636    1.7088 H         1 <0>         0.0689
     35 H12        -2.0397    2.2249    0.5793 H         1 <0>         0.1286
     36 H13        -4.4277    1.7191    0.2609 H         1 <0>         0.1348
     37 H14        -5.1239   -0.5187   -0.4935 H         1 <0>         0.1359
     38 H15        -3.4315   -2.2497   -0.9402 H         1 <0>         0.1390
     39 H16        -1.3807    8.4262    1.5366 H         1 <0>         0.4157
     40 H17         0.3984    8.2019    1.6430 H         1 <0>         0.4105
@<TRIPOS>BOND
     1    1    2 1
     2    1   25 1
     3    1   26 1
     4    1   27 1
     5    2    7 ar
     6    2    3 ar
     7    3    4 ar
     8    3   28 1
     9    4    5 ar
    10    4   29 1
    11    5    6 ar
    12    5   21 1
    13    6    7 ar
    14    6   30 1
    15    7    8 1
    16    8    9 2
    17    8   10 am
    18   10   11 1
    19   10   31 1
    20   11   12 1
    21   11   13 1
    22   11   14 1
    23   13   32 1
    24   13   33 1
    25   13   34 1
    26   14   19 ar
    27   14   15 ar
    28   15   16 ar
    29   15   35 1
    30   16   17 ar
    31   16   36 1
    32   17   18 ar
    33   17   37 1
    34   18   19 ar
    35   18   38 1
    36   19   20 1
    37   21   22 2
    38   21   23 2
    39   21   24 1
    40   24   39 1
    41   24   40 1
@<TRIPOS>MOLECULE
ZINC40348313
   35    36     0     0     0
SMALL
USER_CHARGES

@<TRIPOS>ATOM
      1 C1         -0.8581    0.8637    1.1915 C.3       1 <0>        -0.0758
      2 C2         -0.4660   -0.5049    0.6972 C.2       1 <0>        -0.0106
      3 C3         -1.3142   -1.4731    0.3068 C.2       1 <0>        -0.2121
      4 C4         -0.5233   -2.5807   -0.0761 C.2       1 <0>        -0.1919
      5 C5          0.7610   -2.2230    0.1032 C.2       1 <0>        -0.0263
      6 O1          0.7898   -0.9627    0.5663 O.3       1 <0>        -0.1669
      7 C6          1.9636   -3.0879   -0.1739 C.3       1 <0>         0.2417
      8 H1          1.6605   -4.1347   -0.1980 H         1 <0>         0.1153
      9 C7          2.5696   -2.7011   -1.5244 C.3       1 <0>        -0.1645
     10 N1          2.9597   -2.8921    0.8824 N.pl3     1 <0>        -1.1074
     11 S1          3.4287   -4.1701    1.8254 S.o2      1 <0>         2.6888
     12 O2          4.4240   -3.6770    2.7117 O.2       1 <0>        -0.9393
     13 O3          2.2378   -4.7924    2.2875 O.2       1 <0>        -0.9535
     14 C8          4.2267   -5.3322    0.7683 C.ar      1 <0>        -0.7186
     15 C9          3.6743   -6.5858    0.5793 C.ar      1 <0>         0.0335
     16 C10         4.2972   -7.4992   -0.2480 C.ar      1 <0>        -0.2042
     17 C11         5.4803   -7.1579   -0.8916 C.ar      1 <0>         0.2760
     18 C12         6.0329   -5.8982   -0.7005 C.ar      1 <0>        -0.1881
     19 C13         5.4017   -4.9866    0.1248 C.ar      1 <0>         0.0500
     20 Br1         6.1486   -3.2682    0.3801 Br        1 <0>        -0.0196
     21 N2          6.1128   -8.0799   -1.7286 N.pl3     1 <0>        -0.8598
     22 H2          0.0392    1.4345    1.4306 H         1 <0>         0.0757
     23 H3         -1.4226    1.3820    0.4164 H         1 <0>         0.0858
     24 H4         -1.4744    0.7645    2.0851 H         1 <0>         0.0863
     25 H5         -2.3926   -1.4157    0.2898 H         1 <0>         0.1490
     26 H6         -0.8815   -3.5316   -0.4420 H         1 <0>         0.1502
     27 H7          3.4395   -3.3267   -1.7248 H         1 <0>         0.0712
     28 H8          1.8285   -2.8468   -2.3103 H         1 <0>         0.0755
     29 H9          2.8727   -1.6544   -1.5003 H         1 <0>         0.0704
     30 H10         3.3445   -2.0139    1.0294 H         1 <0>         0.4242
     31 H11         2.7546   -6.8509    1.0797 H         1 <0>         0.1524
     32 H12         3.8653   -8.4782   -0.3944 H         1 <0>         0.1387
     33 H13         6.9526   -5.6299   -1.1990 H         1 <0>         0.1407
     34 H14         5.7262   -8.9596   -1.8611 H         1 <0>         0.4072
     35 H15         6.9388   -7.8405   -2.1774 H         1 <0>         0.4060
@<TRIPOS>BOND
     1    1    2 1
     2    1   22 1
     3    1   23 1
     4    1   24 1
     5    2    6 1
     6    2    3 2
     7    3    4 1
     8    3   25 1
     9    4    5 2
    10    4   26 1
    11    5    6 1
    12    5    7 1
    13    7    8 1
    14    7    9 1
    15    7   10 1
    16    9   27 1
    17    9   28 1
    18    9   29 1
    19   10   11 1
    20   10   30 1
    21   11   12 2
    22   11   13 2
    23   11   14 1
    24   14   19 ar
    25   14   15 ar
    26   15   16 ar
    27   15   31 1
    28   16   17 ar
    29   16   32 1
    30   17   18 ar
    31   17   21 1
    32   18   19 ar
    33   18   33 1
    34   19   20 1
    35   21   34 1
    36   21   35 1
@<TRIPOS>MOLECULE
ZINC49241422
   40    40     0     0     0
SMALL
USER_CHARGES

@<TRIPOS>ATOM
      1 C1         -0.0187    1.5258    0.0104 C.3       1 <0>        -0.1670
      2 C2          0.0021   -0.0041    0.0020 C.3       1 <0>         0.1131
      3 N1          0.6878   -0.4765   -1.2033 N.am      1 <0>        -0.7252
      4 C3          0.8268   -1.7986   -1.4250 C.2       1 <0>         0.5112
      5 O1          0.3843   -2.5972   -0.6267 O.2       1 <0>        -0.5353
      6 C4          1.5322   -2.2846   -2.6649 C.3       1 <0>         0.1454
      7 H1          1.0050   -1.9236   -3.5480 H         1 <0>         0.1170
      8 C5          2.9676   -1.7551   -2.6758 C.3       1 <0>        -0.1610
      9 N2          1.5521   -3.7495   -2.6730 N.am      1 <0>        -0.7299
     10 C6          1.6518   -4.4157   -3.8403 C.2       1 <0>         0.7116
     11 O2          1.7253   -3.8009   -4.8868 O.2       1 <0>        -0.5847
     12 N3          1.6701   -5.7633   -3.8477 N.am      1 <0>        -0.7396
     13 C7          1.7785   -6.4874   -5.1166 C.3       1 <0>         0.1947
     14 H2          2.4158   -5.9276   -5.8011 H         1 <0>         0.1104
     15 C8          0.3871   -6.6490   -5.7321 C.3       1 <0>        -0.1596
     16 C9          2.3794   -7.8471   -4.8693 C.ar      1 <0>        -0.0639
     17 C10         2.2551   -8.4425   -3.6279 C.ar      1 <0>        -0.1125
     18 C11         2.8058   -9.6898   -3.4011 C.ar      1 <0>        -0.0967
     19 C12         3.4812  -10.3426   -4.4156 C.ar      1 <0>        -0.1140
     20 C13         3.6061   -9.7482   -5.6569 C.ar      1 <0>        -0.0840
     21 C14         3.0505   -8.5020   -5.8859 C.ar      1 <0>        -0.0850
     22 Br1         3.2149   -7.6912   -7.5864 Br        1 <0>        -0.0391
     23 H3          1.0039    1.9031    0.0027 H         1 <0>         0.0633
     24 H4         -0.5459    1.8868   -0.8726 H         1 <0>         0.0634
     25 H5         -0.5289    1.8773    0.9072 H         1 <0>         0.0764
     26 H6          0.5293   -0.3651    0.8851 H         1 <0>         0.0696
     27 H7         -1.0205   -0.3814    0.0098 H         1 <0>         0.0693
     28 H8          1.0417    0.1622   -1.8418 H         1 <0>         0.4040
     29 H9          3.4948   -2.1161   -1.7927 H         1 <0>         0.0636
     30 H10         3.4778   -2.1066   -3.5726 H         1 <0>         0.0778
     31 H11         2.9528   -0.6652   -2.6698 H         1 <0>         0.0714
     32 H12         1.4934   -4.2399   -1.8381 H         1 <0>         0.4056
     33 H13         1.6115   -6.2537   -3.0129 H         1 <0>         0.3958
     34 H14         0.4678   -7.1878   -6.6762 H         1 <0>         0.0717
     35 H15        -0.2501   -7.2089   -5.0476 H         1 <0>         0.0593
     36 H16        -0.0475   -5.6656   -5.9110 H         1 <0>         0.0711
     37 H17         1.7278   -7.9327   -2.8350 H         1 <0>         0.1286
     38 H18         2.7087  -10.1544   -2.4310 H         1 <0>         0.1325
     39 H19         3.9117  -11.3170   -4.2378 H         1 <0>         0.1344
     40 H20         4.1338  -10.2582   -6.4493 H         1 <0>         0.1364
@<TRIPOS>BOND
     1    1    2 1
     2    1   23 1
     3    1   24 1
     4    1   25 1
     5    2    3 1
     6    2   26 1
     7    2   27 1
     8    3    4 am
     9    3   28 1
    10    4    5 2
    11    4    6 1
    12    6    7 1
    13    6    8 1
    14    6    9 1
    15    8   29 1
    16    8   30 1
    17    8   31 1
    18    9   10 am
    19    9   32 1
    20   10   11 2
    21   10   12 am
    22   12   13 1
    23   12   33 1
    24   13   14 1
    25   13   15 1
    26   13   16 1
    27   15   34 1
    28   15   35 1
    29   15   36 1
    30   16   21 ar
    31   16   17 ar
    32   17   18 ar
    33   17   37 1
    34   18   19 ar
    35   18   38 1
    36   19   20 ar
    37   19   39 1
    38   20   21 ar
    39   20   40 1
    40   21   22 1
@<TRIPOS>MOLECULE
ZINC48348866
   51    53     0     0     0
SMALL
USER_CHARGES

@<TRIPOS>ATOM
      1 C1          0.3938    0.5847   -1.2699 C.ar      1 <0>        -0.0933
      2 C2          1.6506    1.1406   -1.4160 C.ar      1 <0>        -0.1501
      3 C3          2.6101    0.9484   -0.4365 C.ar      1 <0>         0.0966
      4 C4          2.3091    0.1995    0.6885 C.ar      1 <0>        -0.1504
      5 C5          1.0516   -0.3553    0.8325 C.ar      1 <0>        -0.0823
      6 C6          0.0944   -0.1628   -0.1462 C.ar      1 <0>        -0.0852
      7 C7         -1.2765   -0.7684    0.0120 C.3       1 <0>        -0.0316
      8 C8         -1.8785   -0.3649    1.3738 C.3       1 <0>        -0.1172
      9 C9         -2.6474   -1.6268    1.8381 C.3       1 <0>        -0.1254
     10 C10        -1.7229   -2.7800    1.3750 C.3       1 <0>        -0.1248
     11 C11        -1.1776   -2.3039    0.0127 C.3       1 <0>        -0.1109
     12 C12        -2.1891   -0.3025   -1.1243 C.3       1 <0>         0.1291
     13 N1         -2.3658    1.1496   -1.0446 N.am      1 <0>        -0.7291
     14 C13        -3.2045    1.7741   -1.8949 C.2       1 <0>         0.5175
     15 O1         -3.8129    1.1338   -2.7261 O.2       1 <0>        -0.5345
     16 C14        -3.3862    3.2678   -1.8130 C.3       1 <0>        -0.1068
     17 C15        -3.9167    3.6416   -0.4270 C.3       1 <0>        -0.1262
     18 C16        -4.0674    5.1633   -0.3356 C.3       1 <0>         0.1295
     19 N2         -4.9098    5.6228   -1.4482 N.am      1 <0>        -0.6298
     20 C17        -4.5401    5.2421   -2.8183 C.3       1 <0>         0.1108
     21 C18        -4.3841    3.7194   -2.8818 C.3       1 <0>        -0.1151
     22 C19        -6.0013    6.3787   -1.2164 C.2       1 <0>         0.7100
     23 O2         -6.3506    6.6082   -0.0747 O.2       1 <0>        -0.5917
     24 N3         -6.7055    6.8803   -2.2503 N.am      1 <0>        -0.8678
     25 F1          3.8392    1.4909   -0.5785 F         1 <0>        -0.1394
     26 H1         -0.3562    0.7382   -2.0317 H         1 <0>         0.1373
     27 H2          1.8844    1.7243   -2.2941 H         1 <0>         0.1347
     28 H3          3.0569    0.0487    1.4530 H         1 <0>         0.1359
     29 H4          0.8167   -0.9398    1.7097 H         1 <0>         0.1336
     30 H5         -1.0878   -0.1178    2.0823 H         1 <0>         0.0751
     31 H6         -2.5618    0.4759    1.2548 H         1 <0>         0.0717
     32 H7         -2.7599   -1.6335    2.9222 H         1 <0>         0.0700
     33 H8         -3.6187   -1.6896    1.3475 H         1 <0>         0.0688
     34 H9         -0.9071   -2.9229    2.0836 H         1 <0>         0.0673
     35 H10        -2.2927   -3.7017    1.2568 H         1 <0>         0.0692
     36 H11        -1.7804   -2.7173   -0.7959 H         1 <0>         0.0731
     37 H12        -0.1380   -2.6112   -0.1013 H         1 <0>         0.0729
     38 H13        -1.7379   -0.5616   -2.0821 H         1 <0>         0.0716
     39 H14        -3.1589   -0.7920   -1.0352 H         1 <0>         0.0774
     40 H15        -1.8792    1.6616   -0.3798 H         1 <0>         0.4023
     41 H16        -2.4280    3.7599   -1.9797 H         1 <0>         0.1012
     42 H17        -4.8866    3.1698   -0.2693 H         1 <0>         0.0756
     43 H18        -3.2167    3.2989    0.3351 H         1 <0>         0.0802
     44 H19        -4.5371    5.4278    0.6118 H         1 <0>         0.1001
     45 H20        -3.0858    5.6324   -0.4026 H         1 <0>         0.0703
     46 H21        -5.3217    5.5584   -3.5090 H         1 <0>         0.0822
     47 H22        -3.5970    5.7175   -3.0878 H         1 <0>         0.0738
     48 H23        -4.0168    3.4321   -3.8670 H         1 <0>         0.0859
     49 H24        -5.3496    3.2469   -2.7010 H         1 <0>         0.0767
     50 H25        -6.4704    6.6389   -3.1599 H         1 <0>         0.3962
     51 H26        -7.4476    7.4828   -2.0848 H         1 <0>         0.4151
@<TRIPOS>BOND
     1    1    6 ar
     2    1    2 ar
     3    1   26 1
     4    2    3 ar
     5    2   27 1
     6    3    4 ar
     7    3   25 1
     8    4    5 ar
     9    4   28 1
    10    5    6 ar
    11    5   29 1
    12    6    7 1
    13    7   11 1
    14    7    8 1
    15    7   12 1
    16    8    9 1
    17    8   30 1
    18    8   31 1
    19    9   10 1
    20    9   32 1
    21    9   33 1
    22   10   11 1
    23   10   34 1
    24   10   35 1
    25   11   36 1
    26   11   37 1
    27   12   13 1
    28   12   38 1
    29   12   39 1
    30   13   14 am
    31   13   40 1
    32   14   15 2
    33   14   16 1
    34   16   21 1
    35   16   17 1
    36   16   41 1
    37   17   18 1
    38   17   42 1
    39   17   43 1
    40   18   19 1
    41   18   44 1
    42   18   45 1
    43   19   20 1
    44   19   22 am
    45   20   21 1
    46   20   46 1
    47   20   47 1
    48   21   48 1
    49   21   49 1
    50   22   23 2
    51   22   24 am
    52   24   50 1
    53   24   51 1
@<TRIPOS>MOLECULE
ZINC03153727
   35    37     0     0     0
SMALL
USER_CHARGES
4-amino-5-hydroxy-5,6-diphenyl-2H-1,2,4-triazin-3-one
@<TRIPOS>ATOM
      1 C1         -3.4525    4.6168   -3.8336 C.ar      1 <0>        -0.0961
      2 C2         -3.6451    4.8395   -2.4816 C.ar      1 <0>        -0.1257
      3 C3         -2.5879    5.2297   -1.6862 C.ar      1 <0>        -0.0807
      4 C4         -1.3207    5.3999   -2.2486 C.ar      1 <0>        -0.0414
      5 C5         -1.1349    5.1785   -3.6151 C.ar      1 <0>        -0.0741
      6 C6         -2.2001    4.7839   -4.3976 C.ar      1 <0>        -0.1250
      7 C7         -0.1854    5.8175   -1.4046 C.2       1 <0>         0.1799
      8 N1          0.7758    6.5410   -1.8924 N.2       1 <0>        -0.2150
      9 N2          1.8556    6.9431   -1.1075 N.am      1 <0>        -0.5519
     10 C8          1.9830    6.6207    0.1875 C.2       1 <0>         0.6706
     11 O1          2.9555    7.0111    0.8044 O.2       1 <0>        -0.5680
     12 N3          1.0572    5.8725    0.8208 N.am      1 <0>        -0.4721
     13 C9         -0.1115    5.4128    0.0523 C.3       1 <0>         0.4184
     14 C10        -0.1451    3.9076    0.1168 C.ar      1 <0>        -0.1325
     15 C11         1.0329    3.1868    0.0573 C.ar      1 <0>        -0.0709
     16 C12         1.0020    1.8060    0.1161 C.ar      1 <0>        -0.1218
     17 C13        -0.2068    1.1461    0.2344 C.ar      1 <0>        -0.1030
     18 C14        -1.3853    1.8667    0.2886 C.ar      1 <0>        -0.1213
     19 C15        -1.3540    3.2477    0.2352 C.ar      1 <0>        -0.0909
     20 O2         -1.2854    5.9022    0.7039 O.3       1 <0>        -0.5484
     21 N4          1.2000    5.5501    2.1405 N.3       1 <0>        -0.5703
     22 H1         -4.2839    4.3114   -4.4517 H         1 <0>         0.1267
     23 H2         -4.6253    4.7072   -2.0481 H         1 <0>         0.1296
     24 H3         -2.7396    5.4036   -0.6312 H         1 <0>         0.1460
     25 H4         -0.1586    5.3122   -4.0573 H         1 <0>         0.1306
     26 H5         -2.0571    4.6087   -5.4537 H         1 <0>         0.1295
     27 H6          2.5487    7.4831   -1.5185 H         1 <0>         0.4494
     28 H7          1.9774    3.7023   -0.0355 H         1 <0>         0.1137
     29 H8          1.9224    1.2428    0.0692 H         1 <0>         0.1241
     30 H9         -0.2310    0.0673    0.2800 H         1 <0>         0.1246
     31 H10        -2.3301    1.3510    0.3766 H         1 <0>         0.1266
     32 H11        -2.2744    3.8108    0.2813 H         1 <0>         0.1323
     33 H12        -1.3571    5.6421    1.6325 H         1 <0>         0.3877
     34 H13         2.0503    5.9405    2.5181 H         1 <0>         0.3800
     35 H14         0.3971    5.8476    2.6743 H         1 <0>         0.3393
@<TRIPOS>BOND
     1    1    6 ar
     2    1    2 ar
     3    1   22 1
     4    2    3 ar
     5    2   23 1
     6    3    4 ar
     7    3   24 1
     8    4    5 ar
     9    4    7 1
    10    5    6 ar
    11    5   25 1
    12    6   26 1
    13    7   13 1
    14    7    8 2
    15    8    9 1
    16    9   10 am
    17    9   27 1
    18   10   11 2
    19   10   12 am
    20   12   13 1
    21   12   21 1
    22   13   14 1
    23   13   20 1
    24   14   19 ar
    25   14   15 ar
    26   15   16 ar
    27   15   28 1
    28   16   17 ar
    29   16   29 1
    30   17   18 ar
    31   17   30 1
    32   18   19 ar
    33   18   31 1
    34   19   32 1
    35   20   33 1
    36   21   34 1
    37   21   35 1
@<TRIPOS>MOLECULE
ZINC25174807
   31    32     0     0     0
SMALL
USER_CHARGES

@<TRIPOS>ATOM
      1 C1         -0.0184    1.5028    0.0103 C.3       1 <0>        -0.1284
      2 C2          0.0021   -0.0041    0.0020 C.ar      1 <0>        -0.0977
      3 C3          0.0058   -0.6934   -1.2049 C.ar      1 <0>         0.1639
      4 C4          0.0252   -2.0832   -1.2078 C.ar      1 <0>        -0.1283
      5 C5          0.0406   -2.7748   -0.0125 C.ar      1 <0>        -0.0857
      6 C6          0.0368   -2.0867    1.1868 C.ar      1 <0>        -0.1222
      7 C7          0.0229   -0.7023    1.1942 C.ar      1 <0>        -0.0099
      8 Cl1         0.0249    0.1570    2.7026 Cl        1 <0>        -0.0537
      9 N1         -0.0102    0.0080   -2.4108 N.pl3     1 <0>        -0.4439
     10 N2         -0.0067   -0.6333   -3.5301 N.2       1 <0>        -0.1116
     11 C8         -0.0219    0.0283   -4.6673 C.2       1 <0>        -0.0341
     12 C9         -0.0372    1.4912   -4.8564 C.2       1 <0>         0.3378
     13 N3         -0.0384    2.4494   -3.8423 N.2       1 <0>        -0.8338
     14 N4         -0.0495    1.7306   -6.1344 N.2       1 <0>        -0.4594
     15 N5         -0.0442    0.5521   -6.8799 N.pl3     1 <0>        -0.3288
     16 C10        -0.0208   -0.5320   -6.0363 C.cat     1 <0>         0.4573
     17 N6         -0.0040   -1.7988   -6.3740 N.pl3     1 <0>        -0.7622
     18 C11        -0.0557    0.4808   -8.3432 C.3       1 <0>         0.0877
     19 H1          1.0042    1.8801    0.0026 H         1 <0>         0.0827
     20 H2         -0.5455    1.8639   -0.8728 H         1 <0>         0.0767
     21 H3         -0.5286    1.8543    0.9071 H         1 <0>         0.0832
     22 H4          0.0278   -2.6217   -2.1439 H         1 <0>         0.1417
     23 H5          0.0553   -3.8547   -0.0145 H         1 <0>         0.1407
     24 H6          0.0486   -2.6303    2.1199 H         1 <0>         0.1389
     25 H7         -0.0241    0.9779   -2.4075 H         1 <0>         0.4324
     26 H8          0.0092   -2.4837   -5.6873 H         1 <0>         0.4340
     27 H9         -0.0686    1.4896   -8.7560 H         1 <0>         0.1114
     28 H10         0.8364   -0.0417   -8.6885 H         1 <0>         0.0833
     29 H11        -0.9434   -0.0584   -8.6737 H         1 <0>         0.0836
     30 H12        -0.0491    3.3930   -4.0667 H         1 <0>         0.3250
     31 H13        -0.0048   -2.0510   -7.3107 H         1 <0>         0.4192
@<TRIPOS>BOND
     1    1    2 1
     2    1   19 1
     3    1   20 1
     4    1   21 1
     5    2    7 ar
     6    2    3 ar
     7    3    4 ar
     8    3    9 1
     9    4    5 ar
    10    4   22 1
    11    5    6 ar
    12    5   23 1
    13    6    7 ar
    14    6   24 1
    15    7    8 1
    16    9   10 1
    17    9   25 1
    18   10   11 2
    19   11   16 1
    20   11   12 1
    21   12   13 1
    22   12   14 2
    23   13   30 1
    24   14   15 1
    25   15   16 1
    26   15   18 1
    27   16   17 2
    28   17   26 1
    29   17   31 1
    30   18   27 1
    31   18   28 1
    32   18   29 1
@<TRIPOS>MOLECULE
ZINC42602891
   43    44     0     0     0
SMALL
USER_CHARGES

@<TRIPOS>ATOM
      1 C1         -0.0187    1.5258    0.0104 C.3       1 <0>        -0.1615
      2 C2          0.0021   -0.0041    0.0020 C.3       1 <0>         0.1365
      3 C3          0.7421   -0.5109    1.2415 C.3       1 <0>        -0.1628
      4 N1         -1.3723   -0.5112    0.0124 N.am      1 <0>        -0.7324
      5 C4         -1.6432   -1.7342   -0.4849 C.2       1 <0>         0.4854
      6 O1         -0.7491   -2.4150   -0.9410 O.2       1 <0>        -0.5263
      7 C5         -3.0570   -2.2558   -0.4742 C.3       1 <0>         0.1258
      8 N2         -3.0875   -3.5961   -1.0648 N.pl3     1 <0>        -0.6468
      9 C6         -2.9062   -4.7755   -0.2149 C.3       1 <0>         0.1198
     10 C7         -3.2902   -3.7502   -2.4439 C.ar      1 <0>         0.0643
     11 C8         -2.2045   -3.7797   -3.3057 C.ar      1 <0>        -0.0302
     12 C9         -2.4034   -3.9310   -4.6650 C.ar      1 <0>        -0.1792
     13 C10        -3.6905   -4.0540   -5.1717 C.ar      1 <0>         0.2059
     14 C11        -4.7810   -4.0259   -4.3131 C.ar      1 <0>        -0.2323
     15 C12        -4.5837   -3.8796   -2.9490 C.ar      1 <0>         0.2434
     16 N3         -5.6813   -3.8563   -2.0802 N.pl3     1 <0>        -0.8687
     17 N4         -3.8864   -4.2068   -6.5502 N.am      1 <0>        -0.6643
     18 C13        -2.8743   -4.6045   -7.3427 C.2       1 <0>         0.5229
     19 O2         -3.0564   -4.7179   -8.5365 O.2       1 <0>        -0.5295
     20 C14        -1.5186   -4.9097   -6.7647 C.3       1 <0>        -0.1384
     21 C15        -1.2234   -3.9624   -5.6017 C.3       1 <0>        -0.0680
     22 H1          1.0039    1.9031    0.0027 H         1 <0>         0.0722
     23 H2         -0.5459    1.8868   -0.8726 H         1 <0>         0.0611
     24 H3         -0.5289    1.8773    0.9072 H         1 <0>         0.0604
     25 H4          0.5123   -0.3556   -0.8948 H         1 <0>         0.0861
     26 H5          0.2319   -0.1594    2.1383 H         1 <0>         0.0553
     27 H6          0.7568   -1.6008    1.2356 H         1 <0>         0.0592
     28 H7          1.7647   -0.1336    1.2338 H         1 <0>         0.0645
     29 H8         -2.0874    0.0333    0.3772 H         1 <0>         0.3976
     30 H9         -3.4190   -2.3030    0.5528 H         1 <0>         0.0943
     31 H10        -3.6948   -1.5886   -1.0540 H         1 <0>         0.0920
     32 H11        -3.8762   -5.1128    0.1502 H         1 <0>         0.0337
     33 H12        -2.4387   -5.5721   -0.7936 H         1 <0>         0.0576
     34 H13        -2.2687   -4.5190    0.6313 H         1 <0>         0.0546
     35 H14        -1.2025   -3.6839   -2.9145 H         1 <0>         0.1392
     36 H15        -5.7819   -4.1215   -4.7073 H         1 <0>         0.1260
     37 H16        -5.5425   -3.7501   -1.1261 H         1 <0>         0.4010
     38 H17        -6.5806   -3.9464   -2.4324 H         1 <0>         0.3970
     39 H18        -4.7574   -4.0245   -6.9362 H         1 <0>         0.4095
     40 H19        -1.5011   -5.9390   -6.4067 H         1 <0>         0.1035
     41 H20        -0.7592   -4.7831   -7.5363 H         1 <0>         0.1075
     42 H21        -1.0396   -2.9598   -5.9880 H         1 <0>         0.0761
     43 H22        -0.3419   -4.3113   -5.0638 H         1 <0>         0.0880
@<TRIPOS>BOND
     1    1    2 1
     2    1   22 1
     3    1   23 1
     4    1   24 1
     5    2    3 1
     6    2    4 1
     7    2   25 1
     8    3   26 1
     9    3   27 1
    10    3   28 1
    11    4    5 am
    12    4   29 1
    13    5    6 2
    14    5    7 1
    15    7    8 1
    16    7   30 1
    17    7   31 1
    18    8    9 1
    19    8   10 1
    20    9   32 1
    21    9   33 1
    22    9   34 1
    23   10   15 ar
    24   10   11 ar
    25   11   12 ar
    26   11   35 1
    27   12   21 1
    28   12   13 ar
    29   13   14 ar
    30   13   17 1
    31   14   15 ar
    32   14   36 1
    33   15   16 1
    34   16   37 1
    35   16   38 1
    36   17   18 am
    37   17   39 1
    38   18   19 2
    39   18   20 1
    40   20   21 1
    41   20   40 1
    42   20   41 1
    43   21   42 1
    44   21   43 1
@<TRIPOS>MOLECULE
ZINC49266784
   42    42     0     0     0
SMALL
USER_CHARGES

@<TRIPOS>ATOM
      1 C1         -0.0258    1.5345    0.0189 C.3       1 <0>        -0.1527
      2 C2          0.0001    0.0047    0.0070 C.3       1 <0>        -0.1324
      3 C3         -1.4334   -0.5298    0.0146 C.3       1 <0>         0.1580
      4 H1         -1.9729   -0.1109    0.8641 H         1 <0>         0.0876
      5 C4         -1.4084   -2.0553    0.1284 C.3       1 <0>        -0.1650
      6 N1         -2.1051   -0.1438   -1.2289 N.am      1 <0>        -0.7400
      7 C5         -3.4483   -0.0395   -1.2649 C.2       1 <0>         0.7088
      8 O1         -4.1087   -0.3525   -0.2931 O.2       1 <0>        -0.5889
      9 N2         -4.0596    0.4118   -2.3781 N.am      1 <0>        -0.6296
     10 C6         -3.2881    0.6796   -3.5995 C.3       1 <0>         0.1101
     11 C7         -3.9238   -0.0885   -4.7625 C.3       1 <0>        -0.1341
     12 C8         -5.4060    0.2794   -4.8620 C.3       1 <0>        -0.1121
     13 C9         -6.1209   -0.1223   -3.5698 C.3       1 <0>        -0.1152
     14 H2         -6.0022   -1.1934   -3.4062 H         1 <0>         0.0826
     15 C10        -5.5110    0.6396   -2.3951 C.3       1 <0>         0.1340
     16 C11        -7.6089    0.2152   -3.6833 C.3       1 <0>         0.1452
     17 N3         -8.3131   -0.2769   -2.4966 N.am      1 <0>        -0.7469
     18 C12        -9.6427   -0.0916   -2.3769 C.2       1 <0>         0.7053
     19 O2        -10.2577    0.4840   -3.2537 O.2       1 <0>        -0.5949
     20 N4        -10.2906   -0.5443   -1.2852 N.am      1 <0>        -0.8677
     21 H3          0.9955    1.9152    0.0135 H         1 <0>         0.0570
     22 H4         -0.5530    1.8958   -0.8640 H         1 <0>         0.0531
     23 H5         -0.5385    1.8822    0.9158 H         1 <0>         0.0560
     24 H6          0.5128   -0.3430   -0.8899 H         1 <0>         0.0670
     25 H7          0.5273   -0.3566    0.8900 H         1 <0>         0.0807
     26 H8         -0.9086   -2.3425    1.0536 H         1 <0>         0.0654
     27 H9         -2.4297   -2.4361    0.1338 H         1 <0>         0.0622
     28 H10        -0.8689   -2.4742   -0.7211 H         1 <0>         0.0546
     29 H11        -1.5831    0.0366   -2.0263 H         1 <0>         0.3938
     30 H12        -3.3042    1.7479   -3.8150 H         1 <0>         0.0721
     31 H13        -2.2590    0.3479   -3.4617 H         1 <0>         0.0763
     32 H14        -3.4200    0.1765   -5.6921 H         1 <0>         0.0804
     33 H15        -3.8258   -1.1599   -4.5877 H         1 <0>         0.0686
     34 H16        -5.5040    1.3545   -5.0121 H         1 <0>         0.0712
     35 H17        -5.8551   -0.2471   -5.7041 H         1 <0>         0.0730
     36 H18        -5.9480    0.2817   -1.4629 H         1 <0>         0.0931
     37 H19        -5.7123    1.7047   -2.5102 H         1 <0>         0.0685
     38 H20        -7.7318    1.2958   -3.7567 H         1 <0>         0.0707
     39 H21        -8.0221   -0.2588   -4.5736 H         1 <0>         0.0724
     40 H22        -7.8225   -0.7361   -1.7971 H         1 <0>         0.3985
     41 H23        -9.7999   -1.0035   -0.5857 H         1 <0>         0.3977
     42 H24       -11.2475   -0.4109   -1.1990 H         1 <0>         0.4156
@<TRIPOS>BOND
     1    1    2 1
     2    1   21 1
     3    1   22 1
     4    1   23 1
     5    2    3 1
     6    2   24 1
     7    2   25 1
     8    3    4 1
     9    3    5 1
    10    3    6 1
    11    5   26 1
    12    5   27 1
    13    5   28 1
    14    6    7 am
    15    6   29 1
    16    7    8 2
    17    7    9 am
    18    9   15 1
    19    9   10 1
    20   10   11 1
    21   10   30 1
    22   10   31 1
    23   11   12 1
    24   11   32 1
    25   11   33 1
    26   12   13 1
    27   12   34 1
    28   12   35 1
    29   13   14 1
    30   13   15 1
    31   13   16 1
    32   15   36 1
    33   15   37 1
    34   16   17 1
    35   16   38 1
    36   16   39 1
    37   17   18 am
    38   17   40 1
    39   18   19 2
    40   18   20 am
    41   20   41 1
    42   20   42 1
@<TRIPOS>MOLECULE
ZINC62243123
   38    38     0     0     0
SMALL
USER_CHARGES

@<TRIPOS>ATOM
      1 C1          0.6525   -0.0107    1.2354 C.3       1 <0>        -0.1524
      2 C2         -0.0697    0.1294   -0.1062 C.3       1 <0>        -0.1309
      3 C3         -1.3948   -0.6337   -0.0542 C.3       1 <0>         0.2405
      4 C4         -1.1157   -2.1305    0.0964 C.3       1 <0>        -0.1533
      5 C5         -2.2055   -0.1530    1.1216 C.2       1 <0>         0.3643
      6 N1         -2.5040   -0.9693    2.0774 N.2       1 <0>        -0.4017
      7 O1         -3.2658   -0.5176    3.1822 O.3       1 <0>        -0.4248
      8 N2         -2.6282    1.1566    1.1773 N.pl3     1 <0>        -0.8691
      9 N3         -2.1426   -0.3985   -1.2919 N.am      1 <0>        -0.7262
     10 C6         -1.6099   -0.7515   -2.4785 C.2       1 <0>         0.5285
     11 O2         -0.5114   -1.2638   -2.5217 O.2       1 <0>        -0.5207
     12 C7         -2.3791   -0.5096   -3.7516 C.3       1 <0>        -0.1442
     13 H1         -3.3234   -1.0529   -3.7155 H         1 <0>         0.1084
     14 C8         -1.5547   -0.9949   -4.9479 C.3       1 <0>        -0.1025
     15 C9         -2.3120   -0.6733   -6.2400 C.3       1 <0>        -0.1576
     16 C10        -2.5904    0.8310   -6.2982 C.3       1 <0>         0.0556
     17 O3         -3.3334    1.2216   -5.1417 O.3       1 <0>        -0.3754
     18 C11        -2.6562    0.9882   -3.9051 C.3       1 <0>         0.0722
     19 H2          1.5889    0.5462    1.2038 H         1 <0>         0.0617
     20 H3          0.0211    0.3849    2.0309 H         1 <0>         0.0536
     21 H4          0.8619   -1.0631    1.4271 H         1 <0>         0.0637
     22 H5         -0.2648    1.1831   -0.3055 H         1 <0>         0.0645
     23 H6          0.5550   -0.2808   -0.8997 H         1 <0>         0.0993
     24 H7         -0.5593   -2.3055    1.0173 H         1 <0>         0.0769
     25 H8         -2.0598   -2.6741    0.1334 H         1 <0>         0.0632
     26 H9         -0.5293   -2.4782   -0.7541 H         1 <0>         0.0838
     27 H10        -3.4387   -1.1994    3.8458 H         1 <0>         0.4023
     28 H11        -2.3420    1.7879    0.4988 H         1 <0>         0.3965
     29 H12        -3.2121    1.4476    1.8951 H         1 <0>         0.4092
     30 H13        -3.0211    0.0112   -1.2573 H         1 <0>         0.4023
     31 H14        -0.5896   -0.4884   -4.9552 H         1 <0>         0.0744
     32 H15        -1.4024   -2.0716   -4.8729 H         1 <0>         0.0772
     33 H16        -1.7076   -0.9654   -7.0987 H         1 <0>         0.0806
     34 H17        -3.2554   -1.2191   -6.2547 H         1 <0>         0.0738
     35 H18        -1.6460    1.3746   -6.3242 H         1 <0>         0.0538
     36 H19        -3.1665    1.0596   -7.1948 H         1 <0>         0.0983
     37 H20        -3.2793    1.3292   -3.0783 H         1 <0>         0.0959
     38 H21        -1.7132    1.5348   -3.8994 H         1 <0>         0.0584
@<TRIPOS>BOND
     1    1    2 1
     2    1   19 1
     3    1   20 1
     4    1   21 1
     5    2    3 1
     6    2   22 1
     7    2   23 1
     8    3    4 1
     9    3    5 1
    10    3    9 1
    11    4   24 1
    12    4   25 1
    13    4   26 1
    14    5    6 2
    15    5    8 1
    16    6    7 1
    17    7   27 1
    18    8   28 1
    19    8   29 1
    20    9   10 am
    21    9   30 1
    22   10   11 2
    23   10   12 1
    24   12   13 1
    25   12   18 1
    26   12   14 1
    27   14   15 1
    28   14   31 1
    29   14   32 1
    30   15   16 1
    31   15   33 1
    32   15   34 1
    33   16   17 1
    34   16   35 1
    35   16   36 1
    36   17   18 1
    37   18   37 1
    38   18   38 1
@<TRIPOS>MOLECULE
ZINC13690300
   47    49     0     0     0
SMALL
USER_CHARGES
5-amino-4-(4,5-dimethylthiazol-2-yl)-1-[[(2S)-1-ethylpyrrolidin-2-yl]methyl]-2H-pyrrol-3-one
@<TRIPOS>ATOM
      1 C1        -11.0230    2.7088   -0.8764 C.3       1 <0>        -0.1873
      2 C2         -9.6596    2.6709   -0.1832 C.3       1 <0>        -0.0163
      3 C3        -10.0493    4.9606    0.5279 C.3       1 <0>        -0.0093
      4 C4         -9.1520    5.9716    1.2844 C.3       1 <0>        -0.1426
      5 C5         -7.9980    5.0585    1.7835 C.3       1 <0>        -0.1385
      6 C6         -7.8349    4.0474    0.6291 C.3       1 <0>        -0.0057
      7 H1         -7.0207    4.3595   -0.0249 H         1 <0>         0.1414
      8 C7         -7.5442    2.6554    1.1936 C.3       1 <0>         0.1177
      9 N1         -6.2311    2.6562    1.8432 N.pl3     1 <0>        -0.6042
     10 C8         -5.9551    3.0458    3.2330 C.3       1 <0>         0.0680
     11 C9         -4.4607    2.8686    3.3991 C.2       1 <0>         0.4055
     12 O1         -3.8034    3.0785    4.4003 O.2       1 <0>        -0.4492
     13 C10        -3.9911    2.4109    2.1571 C.2       1 <0>        -0.3467
     14 C11        -5.0523    2.3018    1.2643 C.2       1 <0>         0.5455
     15 N2         -4.9269    1.8872   -0.0297 N.pl3     1 <0>        -0.8138
     16 C12        -2.5838    2.0989    1.8446 C.2       1 <0>         0.2085
     17 N3         -2.0481    1.6701    0.7085 N.2       1 <0>        -0.5444
     18 C13        -0.7571    1.4367    0.6107 C.2       1 <0>         0.0551
     19 C14         0.0514    1.6450    1.6796 C.2       1 <0>        -0.1967
     20 S1         -1.1386    2.2032    2.8922 S.3       1 <0>         0.0361
     21 C15         1.5411    1.4584    1.8094 C.3       1 <0>        -0.0632
     22 C16        -0.1761    0.9442   -0.6896 C.3       1 <0>        -0.0816
     23 H2        -11.3934    1.6918   -1.0056 H         1 <0>         0.1074
     24 H3        -11.7253    3.2764   -0.2659 H         1 <0>         0.0828
     25 H4        -10.9217    3.1852   -1.8515 H         1 <0>         0.0808
     26 H5         -8.9839    2.0263   -0.7455 H         1 <0>         0.1298
     27 H6         -9.7767    2.2807    0.8278 H         1 <0>         0.1327
     28 H7        -10.6515    5.4744   -0.2215 H         1 <0>         0.1373
     29 H8        -10.6897    4.4238    1.2278 H         1 <0>         0.1353
     30 H9         -8.7750    6.7402    0.6097 H         1 <0>         0.1003
     31 H10        -9.6877    6.4187    2.1218 H         1 <0>         0.1206
     32 H11        -8.2810    4.5492    2.7047 H         1 <0>         0.1026
     33 H12        -7.0824    5.6328    1.9250 H         1 <0>         0.1163
     34 H13        -7.5482    1.9265    0.3832 H         1 <0>         0.1053
     35 H14        -8.3102    2.3918    1.9230 H         1 <0>         0.1179
     36 H15        -6.4754    2.4589    3.8533 H         1 <0>         0.1066
     37 H16        -6.2341    4.0863    3.3991 H         1 <0>         0.1131
     38 H17        -4.0692    1.5750   -0.3580 H         1 <0>         0.4440
     39 H18        -5.6955    1.9047   -0.6212 H         1 <0>         0.3977
     40 H19         2.0482    2.3847    1.5395 H         1 <0>         0.0787
     41 H20         1.7862    1.1965    2.8387 H         1 <0>         0.0748
     42 H21         1.8665    0.6588    1.1438 H         1 <0>         0.0827
     43 H22        -0.1844   -0.1457   -0.7017 H         1 <0>         0.0718
     44 H23         0.8493    1.3008   -0.7877 H         1 <0>         0.0735
     45 H24        -0.7729    1.3213   -1.5202 H         1 <0>         0.0688
     46 N4         -9.0959    4.0450   -0.1300 N.4       1 <0>        -0.3920
     47 H25        -8.9169    4.3712   -1.0870 H         1 <0>         0.4330
@<TRIPOS>BOND
     1    1    2 1
     2    1   23 1
     3    1   24 1
     4    1   25 1
     5    2   26 1
     6    2   27 1
     7    2   46 1
     8    3    4 1
     9    3   28 1
    10    3   29 1
    11    3   46 1
    12    4    5 1
    13    4   30 1
    14    4   31 1
    15    5    6 1
    16    5   32 1
    17    5   33 1
    18    6    7 1
    19    6    8 1
    20    6   46 1
    21    8    9 1
    22    8   34 1
    23    8   35 1
    24    9   14 1
    25    9   10 1
    26   10   11 1
    27   10   36 1
    28   10   37 1
    29   11   12 2
    30   11   13 1
    31   13   14 2
    32   13   16 1
    33   14   15 1
    34   15   38 1
    35   15   39 1
    36   16   20 1
    37   16   17 2
    38   17   18 1
    39   18   19 2
    40   18   22 1
    41   19   20 1
    42   19   21 1
    43   21   40 1
    44   21   41 1
    45   21   42 1
    46   22   43 1
    47   22   44 1
    48   22   45 1
    49   46   47 1
@<TRIPOS>MOLECULE
ZINC40749904
   38    40     0     0     0
SMALL
USER_CHARGES

@<TRIPOS>ATOM
      1 C1         -0.0167    1.3792    0.0096 C.ar      1 <0>        -0.1329
      2 C2          1.1668    2.0884    0.0021 C.ar      1 <0>        -0.0149
      3 C3          2.3851    1.4068   -0.0131 C.ar      1 <0>        -0.0353
      4 C4          2.3967    0.0103   -0.0207 C.ar      1 <0>         0.0209
      5 C5          1.2061   -0.6860   -0.0130 C.ar      1 <0>        -0.6849
      6 C6          0.0021   -0.0041    0.0020 C.ar      1 <0>         0.0025
      7 S1          1.2183   -2.4480   -0.0226 S.o2      1 <0>         2.7048
      8 O1         -0.0294   -2.8598   -0.5637 O.2       1 <0>        -0.9325
      9 O2          2.4611   -2.8425   -0.5874 O.2       1 <0>        -0.9336
     10 N1          1.2368   -2.9460    1.5567 N.pl3     1 <0>        -1.0126
     11 C7          2.4121   -3.2075    2.4223 C.3       1 <0>         0.1540
     12 H1          3.3306   -3.3216    1.8466 H         1 <0>         0.1282
     13 C8          2.0402   -4.4970    3.1900 C.3       1 <0>        -0.1378
     14 C9          0.4973   -4.5160    3.2020 C.3       1 <0>        -0.1380
     15 C10         0.0818   -3.2300    2.4425 C.3       1 <0>         0.1552
     16 H2         -0.8441   -3.3617    1.8827 H         1 <0>         0.1301
     17 C11        -0.0033   -2.0838    3.4630 C.3       1 <0>        -0.1596
     18 C12         1.2573   -2.0999    4.3325 C.3       1 <0>         0.0240
     19 C13         2.5019   -2.0517    3.4315 C.3       1 <0>        -0.1605
     20 N2          1.2575   -0.9253    5.2147 N.4       1 <0>        -0.6386
     21 C14         3.6173    2.1363   -0.0214 C.1       1 <0>         0.2336
     22 N3          4.5948    2.7150   -0.0280 N.1       1 <0>        -0.3822
     23 H3         -0.9598    1.9051    0.0260 H         1 <0>         0.1499
     24 H4          1.1507    3.1682    0.0077 H         1 <0>         0.1469
     25 H5          3.3356   -0.5231   -0.0328 H         1 <0>         0.1512
     26 H6         -0.9272   -0.5543    0.0079 H         1 <0>         0.1503
     27 H7          2.4266   -5.3734    2.6697 H         1 <0>         0.0913
     28 H8          2.4273   -4.4576    4.2082 H         1 <0>         0.0847
     29 H9          0.1245   -5.4018    2.6876 H         1 <0>         0.0913
     30 H10         0.1252   -4.4860    4.2261 H         1 <0>         0.0844
     31 H11        -0.0723   -1.1314    2.9374 H         1 <0>         0.0931
     32 H12        -0.8828   -2.2200    4.0924 H         1 <0>         0.1067
     33 H13         1.2693   -3.0067    4.9371 H         1 <0>         0.1532
     34 H14         3.3950   -2.1712    4.0449 H         1 <0>         0.1059
     35 H15         2.5482   -1.1030    2.8968 H         1 <0>         0.0944
     36 H16         0.4403   -0.9487    5.8061 H         1 <0>         0.4371
     37 H17         2.0878   -0.9353    5.7879 H         1 <0>         0.4377
     38 H18         1.2445   -0.0851    4.6562 H         1 <0>         0.4322
@<TRIPOS>BOND
     1    1    6 ar
     2    1    2 ar
     3    1   23 1
     4    2    3 ar
     5    2   24 1
     6    3    4 ar
     7    3   21 1
     8    4    5 ar
     9    4   25 1
    10    5    6 ar
    11    5    7 1
    12    6   26 1
    13    7    8 2
    14    7    9 2
    15    7   10 1
    16   10   15 1
    17   10   11 1
    18   11   12 1
    19   11   19 1
    20   11   13 1
    21   13   14 1
    22   13   27 1
    23   13   28 1
    24   14   15 1
    25   14   29 1
    26   14   30 1
    27   15   16 1
    28   15   17 1
    29   17   18 1
    30   17   31 1
    31   17   32 1
    32   18   19 1
    33   18   20 1
    34   18   33 1
    35   19   34 1
    36   19   35 1
    37   20   36 1
    38   20   37 1
    39   20   38 1
    40   21   22 3
@<TRIPOS>MOLECULE
ZINC48927358
   48    49     0     0     0
SMALL
USER_CHARGES

@<TRIPOS>ATOM
      1 C1         -0.0187    1.5258    0.0104 C.3       1 <0>        -0.1803
      2 C2          0.0021   -0.0041    0.0020 C.3       1 <0>         0.0756
      3 C3         -1.4338   -0.5349    0.0184 C.3       1 <0>         0.0721
      4 O1         -2.0720   -0.1317    1.2330 O.3       1 <0>        -0.3724
      5 C4         -1.4064   -0.5902    2.4129 C.3       1 <0>         0.0615
      6 C5          0.0298   -0.0599    2.4208 C.3       1 <0>        -0.0015
      7 N1          0.7130   -0.4919    1.1928 N.3       1 <0>        -0.5439
      8 C6          2.1142   -0.0509    1.1869 C.3       1 <0>         0.0199
      9 C7          2.8812   -0.7743    2.2956 C.3       1 <0>         0.1031
     10 H1          2.4879   -0.4721    3.2663 H         1 <0>         0.1508
     11 C8          4.3425   -0.4155    2.2120 C.ar      1 <0>        -0.1376
     12 C9          5.2159   -1.2326    1.5206 C.ar      1 <0>        -0.1293
     13 C10         6.5605   -0.9022    1.4432 C.ar      1 <0>         0.1154
     14 C11         7.0285    0.2488    2.0601 C.ar      1 <0>        -0.1419
     15 C12         6.1554    1.0656    2.7513 C.ar      1 <0>        -0.1500
     16 C13         4.8094    0.7379    2.8242 C.ar      1 <0>         0.1251
     17 O2          3.9487    1.5451    3.5000 O.3       1 <0>        -0.3179
     18 C14         4.4984    2.7166    4.1062 C.3       1 <0>         0.0229
     19 O3          7.4203   -1.7067    0.7631 O.3       1 <0>        -0.3126
     20 C15         8.7912   -1.3053    0.7242 C.3       1 <0>         0.0222
     21 N2          2.7233   -2.2257    2.1336 N.4       1 <0>        -0.6299
     22 C16         0.7162   -0.4984   -1.2576 C.3       1 <0>        -0.1488
     23 H2          1.0039    1.9031    0.0027 H         1 <0>         0.0577
     24 H3         -0.5459    1.8868   -0.8726 H         1 <0>         0.0735
     25 H4         -0.5289    1.8773    0.9072 H         1 <0>         0.0692
     26 H5         -1.9814   -0.1295   -0.8325 H         1 <0>         0.1058
     27 H6         -1.4203   -1.6232   -0.0418 H         1 <0>         0.0631
     28 H7         -1.9341   -0.2248    3.2938 H         1 <0>         0.1054
     29 H8         -1.3920   -1.6801    2.4224 H         1 <0>         0.0603
     30 H9          0.0155    1.0291    2.4654 H         1 <0>         0.0658
     31 H10         0.5583   -0.4535    3.2890 H         1 <0>         0.0837
     32 H11         2.5644   -0.2840    0.2220 H         1 <0>         0.1100
     33 H12         2.1572    1.0248    1.3576 H         1 <0>         0.0921
     34 H13         4.8516   -2.1289    1.0406 H         1 <0>         0.1341
     35 H14         8.0758    0.5059    2.0002 H         1 <0>         0.1448
     36 H15         6.5199    1.9613    3.2322 H         1 <0>         0.1459
     37 H16         5.2593    2.4277    4.8312 H         1 <0>         0.0635
     38 H17         4.9485    3.3459    3.3384 H         1 <0>         0.0631
     39 H18         3.7067    3.2699    4.6114 H         1 <0>         0.1104
     40 H19         9.3667   -2.0327    0.1517 H         1 <0>         0.1108
     41 H20         8.8699   -0.3264    0.2514 H         1 <0>         0.0617
     42 H21         9.1827   -1.2507    1.7400 H         1 <0>         0.0616
     43 H22         1.7449   -2.4659    2.1896 H         1 <0>         0.4430
     44 H23         3.0874   -2.5054    1.2351 H         1 <0>         0.4312
     45 H24         1.7389   -0.1214   -1.2671 H         1 <0>         0.0624
     46 H25         0.7306   -1.5883   -1.2630 H         1 <0>         0.0675
     47 H26         0.1877   -0.1377   -2.1401 H         1 <0>         0.0757
     48 H27         3.2291   -2.7028    2.8648 H         1 <0>         0.4353
@<TRIPOS>BOND
     1    1    2 1
     2    1   23 1
     3    1   24 1
     4    1   25 1
     5    2    7 1
     6    2    3 1
     7    2   22 1
     8    3    4 1
     9    3   26 1
    10    3   27 1
    11    4    5 1
    12    5    6 1
    13    5   28 1
    14    5   29 1
    15    6    7 1
    16    6   30 1
    17    6   31 1
    18    7    8 1
    19    8    9 1
    20    8   32 1
    21    8   33 1
    22    9   10 1
    23    9   11 1
    24    9   21 1
    25   11   16 ar
    26   11   12 ar
    27   12   13 ar
    28   12   34 1
    29   13   14 ar
    30   13   19 1
    31   14   15 ar
    32   14   35 1
    33   15   16 ar
    34   15   36 1
    35   16   17 1
    36   17   18 1
    37   18   37 1
    38   18   38 1
    39   18   39 1
    40   19   20 1
    41   20   40 1
    42   20   41 1
    43   20   42 1
    44   21   43 1
    45   21   44 1
    46   21   48 1
    47   22   45 1
    48   22   46 1
    49   22   47 1
@<TRIPOS>MOLECULE
ZINC57601596
   45    46     0     0     0
SMALL
USER_CHARGES

@<TRIPOS>ATOM
      1 C1         -0.0184    1.5028    0.0103 C.3       1 <0>        -0.1295
      2 C2          0.0021   -0.0041    0.0020 C.ar      1 <0>        -0.0599
      3 C3          0.0057   -0.6887   -1.1989 C.ar      1 <0>        -0.1139
      4 C4          0.0245   -2.0709   -1.2065 C.ar      1 <0>        -0.1055
      5 C5          0.0400   -2.7685   -0.0132 C.ar      1 <0>        -0.1436
      6 C6          0.0373   -2.0839    1.1877 C.ar      1 <0>        -0.1093
      7 C7          0.0229   -0.7016    1.1953 C.ar      1 <0>        -0.1138
      8 C8          0.0595   -4.2753   -0.0215 C.3       1 <0>        -0.0456
      9 H1          0.0584   -4.6330   -1.0511 H         1 <0>         0.1107
     10 C9          1.3192   -4.7730    0.6901 C.3       1 <0>        -0.1346
     11 C10         1.4014   -6.2734    0.5751 C.2       1 <0>         0.5155
     12 O1          0.5376   -6.8844   -0.0176 O.2       1 <0>        -0.5501
     13 N1          2.4349   -6.9362    1.1310 N.am      1 <0>        -0.6038
     14 C11         3.4857   -6.2094    1.8574 C.3       1 <0>         0.0842
     15 C12         3.6038   -6.7993    3.2682 C.3       1 <0>         0.0977
     16 N2          3.7000   -8.2617    3.1592 N.am      1 <0>        -0.6286
     17 C13         2.6492   -8.9885    2.4328 C.3       1 <0>         0.0934
     18 C14         2.5282   -8.3992    1.0268 C.3       1 <0>         0.0952
     19 C15         4.7335   -8.9245    3.7151 C.2       1 <0>         0.4954
     20 O2          4.8021  -10.1315    3.6186 O.2       1 <0>        -0.5389
     21 C16        -1.1791   -4.8053    0.7038 C.3       1 <0>        -0.0107
     22 N3         -2.3846   -4.4281   -0.0462 N.4       1 <0>        -0.6336
     23 H2          1.0042    1.8801    0.0026 H         1 <0>         0.0807
     24 H3         -0.5455    1.8639   -0.8728 H         1 <0>         0.0735
     25 H4         -0.5286    1.8543    0.9071 H         1 <0>         0.0734
     26 H5         -0.0064   -0.1436   -2.1312 H         1 <0>         0.1313
     27 H6          0.0266   -2.6057   -2.1448 H         1 <0>         0.1281
     28 H7          0.0491   -2.6289    2.1200 H         1 <0>         0.1255
     29 H8          0.0245   -0.1667    2.1335 H         1 <0>         0.1308
     30 H9          2.1986   -4.3245    0.2281 H         1 <0>         0.1172
     31 H10         1.2776   -4.4910    1.7421 H         1 <0>         0.1076
     32 H11         4.4355   -6.3198    1.3340 H         1 <0>         0.0858
     33 H12         3.2219   -5.1539    1.9231 H         1 <0>         0.1003
     34 H13         4.4981   -6.4091    3.7541 H         1 <0>         0.1045
     35 H14         2.7220   -6.5331    3.8510 H         1 <0>         0.0762
     36 H15         2.9130  -10.0440    2.3671 H         1 <0>         0.1098
     37 H16         1.6995   -8.8781    2.9562 H         1 <0>         0.0713
     38 H17         1.6321   -8.7894    0.5442 H         1 <0>         0.1079
     39 H18         3.4082   -8.6690    0.4430 H         1 <0>         0.0794
     40 H19         5.5006   -8.3808    4.2464 H         1 <0>         0.1377
     41 H20        -1.1210   -5.8914    0.7758 H         1 <0>         0.1521
     42 H21        -1.2250   -4.3768    1.7049 H         1 <0>         0.1297
     43 H22        -2.4383   -3.4227   -0.1128 H         1 <0>         0.4316
     44 H23        -2.3420   -4.8248   -0.9729 H         1 <0>         0.4367
     45 H24        -3.2014   -4.7776    0.4321 H         1 <0>         0.4381
@<TRIPOS>BOND
     1    1    2 1
     2    1   23 1
     3    1   24 1
     4    1   25 1
     5    2    7 ar
     6    2    3 ar
     7    3    4 ar
     8    3   26 1
     9    4    5 ar
    10    4   27 1
    11    5    6 ar
    12    5    8 1
    13    6    7 ar
    14    6   28 1
    15    7   29 1
    16    8    9 1
    17    8   10 1
    18    8   21 1
    19   10   11 1
    20   10   30 1
    21   10   31 1
    22   11   12 2
    23   11   13 am
    24   13   18 1
    25   13   14 1
    26   14   15 1
    27   14   32 1
    28   14   33 1
    29   15   16 1
    30   15   34 1
    31   15   35 1
    32   16   17 1
    33   16   19 am
    34   17   18 1
    35   17   36 1
    36   17   37 1
    37   18   38 1
    38   18   39 1
    39   19   20 2
    40   19   40 1
    41   21   22 1
    42   21   41 1
    43   21   42 1
    44   22   43 1
    45   22   44 1
    46   22   45 1
@<TRIPOS>MOLECULE
ZINC62210349
   33    34     0     0     0
SMALL
USER_CHARGES

@<TRIPOS>ATOM
      1 C1         -0.0173    1.4248    0.0099 C.3       1 <0>         0.0298
      2 O1          0.0021   -0.0041    0.0020 O.3       1 <0>        -0.3991
      3 C2         -1.2953   -0.6030    0.0112 C.3       1 <0>         0.0388
      4 C3         -1.1538   -2.1264    0.0017 C.3       1 <0>         0.1291
      5 N1         -0.5155   -2.5654    1.2451 N.am      1 <0>        -0.6015
      6 C4          0.9341   -2.7036    1.4278 C.3       1 <0>         0.2166
      7 H1          1.4518   -1.8450    1.0001 H         1 <0>         0.1598
      8 C5          1.1540   -2.7537    2.9560 C.3       1 <0>         0.0188
      9 H2          1.3509   -1.7584    3.3546 H         1 <0>         0.1822
     10 C6         -0.2087   -3.2893    3.4532 C.3       1 <0>        -0.1744
     11 C7         -1.1820   -2.8877    2.3670 C.2       1 <0>         0.5249
     12 O2         -2.3883   -2.8628    2.4898 O.2       1 <0>        -0.4813
     13 N2          2.2411   -3.6796    3.3007 N.4       1 <0>        -0.6258
     14 C8          1.4213   -3.9776    0.7870 C.2       1 <0>        -0.0917
     15 C9          2.5800   -4.1298    0.1211 C.2       1 <0>        -0.1577
     16 C10         2.6322   -5.4760   -0.3083 C.2       1 <0>        -0.1579
     17 C11         1.5012   -6.0663    0.1213 C.2       1 <0>        -0.0060
     18 O3          0.7745   -5.1552    0.7890 O.3       1 <0>        -0.1509
     19 Br1         1.0206   -7.8733   -0.1609 Br        1 <0>         0.0855
     20 H3          1.0053    1.8021    0.0021 H         1 <0>         0.0904
     21 H4         -0.5445    1.7859   -0.8732 H         1 <0>         0.0483
     22 H5         -0.5275    1.7763    0.9067 H         1 <0>         0.0442
     23 H6         -1.8320   -0.2936    0.9080 H         1 <0>         0.0596
     24 H7         -1.8490   -0.2840   -0.8718 H         1 <0>         0.0728
     25 H8         -2.1404   -2.5824   -0.0809 H         1 <0>         0.1114
     26 H9         -0.5414   -2.4291   -0.8477 H         1 <0>         0.0960
     27 H10        -0.1764   -4.3736    3.5601 H         1 <0>         0.1286
     28 H11        -0.4812   -2.8198    4.3984 H         1 <0>         0.1415
     29 H12         3.0959   -3.3735    2.8604 H         1 <0>         0.4417
     30 H13         2.3652   -3.6948    4.3019 H         1 <0>         0.4455
     31 H14         3.3271   -3.3695   -0.0525 H         1 <0>         0.1733
     32 H15         3.4266   -5.9411   -0.8730 H         1 <0>         0.1738
     33 H16         2.0090   -4.6064    2.9764 H         1 <0>         0.4334
@<TRIPOS>BOND
     1    1    2 1
     2    1   20 1
     3    1   21 1
     4    1   22 1
     5    2    3 1
     6    3    4 1
     7    3   23 1
     8    3   24 1
     9    4    5 1
    10    4   25 1
    11    4   26 1
    12    5   11 am
    13    5    6 1
    14    6    7 1
    15    6    8 1
    16    6   14 1
    17    8    9 1
    18    8   10 1
    19    8   13 1
    20   10   11 1
    21   10   27 1
    22   10   28 1
    23   11   12 2
    24   13   29 1
    25   13   30 1
    26   13   33 1
    27   14   18 1
    28   14   15 2
    29   15   16 1
    30   15   31 1
    31   16   17 2
    32   16   32 1
    33   17   18 1
    34   17   19 1
@<TRIPOS>MOLECULE
ZINC06183551
   49    51     0     0     0
SMALL
USER_CHARGES
chloro-(3-dimethylamino-2-methyl-propyl)-BLAHol
@<TRIPOS>ATOM
      1 C1         -1.0862   -1.2445    2.8367 C.3       1 <0>        -0.1559
      2 C2         -1.9194   -0.9828    1.5805 C.3       1 <0>        -0.1257
      3 H1         -1.2846   -1.0697    0.6988 H         1 <0>         0.0953
      4 C3         -2.5114    0.4266    1.6457 C.3       1 <0>        -0.1282
      5 C4         -1.3812    1.4569    1.6046 C.3       1 <0>        -0.0336
      6 H2         -0.6488    1.1807    2.3632 H         1 <0>         0.1023
      7 C5         -1.9567    2.7952    1.9778 C.ar      1 <0>        -0.0489
      8 C6         -2.7672    2.7269    3.1216 C.ar      1 <0>        -0.1363
      9 C7         -3.3600    3.8386    3.6660 C.ar      1 <0>        -0.1035
     10 C8         -3.1607    5.0737    3.0744 C.ar      1 <0>        -0.1090
     11 C9         -2.3808    5.1543    1.9488 C.ar      1 <0>        -0.0877
     12 C10        -1.7745    4.0174    1.3821 C.ar      1 <0>        -0.0921
     13 S1         -0.8326    4.3247   -0.0680 S.3       1 <0>         0.0298
     14 C11         0.6673    3.4273    0.1206 C.ar      1 <0>        -0.1115
     15 C12         1.8892    4.0907    0.1292 C.ar      1 <0>        -0.0565
     16 C13         3.0556    3.3519    0.2061 C.ar      1 <0>        -0.1002
     17 C14         2.9919    1.9708    0.2758 C.ar      1 <0>        -0.0178
     18 C15         1.7692    1.3244    0.2858 C.ar      1 <0>        -0.1044
     19 C16         0.5970    2.0683    0.2206 C.ar      1 <0>        -0.1001
     20 C17        -0.7197    1.3657    0.2673 C.3       1 <0>         0.1496
     21 H3         -0.5658    0.3147    0.0227 H         1 <0>         0.0694
     22 O1         -1.5849    1.9437   -0.7122 O.3       1 <0>        -0.5380
     23 Cl1         4.4575    1.0433    0.3506 Cl        1 <0>        -0.0523
     24 C18        -3.0518   -2.0082    1.4968 C.3       1 <0>        -0.0026
     25 C19        -2.9992   -2.3986   -0.8922 C.3       1 <0>        -0.0453
     26 C20        -5.1086   -2.4442    0.2958 C.3       1 <0>        -0.0434
     27 H4         -1.7295   -1.1989    3.7155 H         1 <0>         0.0714
     28 H5         -0.6304   -2.2325    2.7710 H         1 <0>         0.0713
     29 H6         -0.3051   -0.4887    2.9186 H         1 <0>         0.0780
     30 H7         -3.0744    0.5416    2.5719 H         1 <0>         0.0956
     31 H8         -3.1754    0.5814    0.7953 H         1 <0>         0.0711
     32 H9         -2.9301    1.7670    3.5891 H         1 <0>         0.1222
     33 H10        -3.9764    3.7503    4.5485 H         1 <0>         0.1290
     34 H11        -3.6128    5.9610    3.4925 H         1 <0>         0.1341
     35 H12        -2.2274    6.1173    1.4846 H         1 <0>         0.1320
     36 H13         1.9269    5.1688    0.0762 H         1 <0>         0.1498
     37 H14         4.0134    3.8508    0.2114 H         1 <0>         0.1465
     38 H15         1.7255    0.2469    0.3443 H         1 <0>         0.1367
     39 H16        -1.2407    1.9016   -1.6149 H         1 <0>         0.3812
     40 H17        -2.6356   -3.0143    1.5491 H         1 <0>         0.1345
     41 H18        -3.7414   -1.8567    2.3273 H         1 <0>         0.1315
     42 H19        -2.8919   -3.4751   -0.7590 H         1 <0>         0.1244
     43 H20        -3.5206   -2.1986   -1.8284 H         1 <0>         0.1233
     44 H21        -2.0128   -1.9357   -0.9197 H         1 <0>         0.1185
     45 H22        -5.6829   -1.9643    1.0882 H         1 <0>         0.1215
     46 H23        -5.6189   -2.3062   -0.6574 H         1 <0>         0.1229
     47 H24        -5.0165   -3.5094    0.5078 H         1 <0>         0.1239
     48 N1         -3.7740   -1.8131    0.2220 N.4       1 <0>        -0.4022
     49 H25        -3.8898   -0.8066    0.0550 H         1 <0>         0.4295
@<TRIPOS>BOND
     1    1    2 1
     2    1   27 1
     3    1   28 1
     4    1   29 1
     5    2    3 1
     6    2    4 1
     7    2   24 1
     8    4    5 1
     9    4   30 1
    10    4   31 1
    11    5    6 1
    12    5   20 1
    13    5    7 1
    14    7   12 ar
    15    7    8 ar
    16    8    9 ar
    17    8   32 1
    18    9   10 ar
    19    9   33 1
    20   10   11 ar
    21   10   34 1
    22   11   12 ar
    23   11   35 1
    24   12   13 1
    25   13   14 1
    26   14   19 ar
    27   14   15 ar
    28   15   16 ar
    29   15   36 1
    30   16   17 ar
    31   16   37 1
    32   17   18 ar
    33   17   23 1
    34   18   19 ar
    35   18   38 1
    36   19   20 1
    37   20   21 1
    38   20   22 1
    39   22   39 1
    40   24   40 1
    41   24   41 1
    42   24   48 1
    43   25   42 1
    44   25   43 1
    45   25   44 1
    46   25   48 1
    47   26   45 1
    48   26   46 1
    49   26   47 1
    50   26   48 1
    51   48   49 1
@<TRIPOS>MOLECULE
ZINC35508606
   44    45     0     0     0
SMALL
USER_CHARGES

@<TRIPOS>ATOM
      1 C1          0.1800    1.6011   -0.2108 C.3       1 <0>        -0.1875
      2 C2          0.0983    0.0766   -0.1110 C.3       1 <0>        -0.0151
      3 N1          0.7978   -0.5271   -1.2530 N.4       1 <0>        -0.5078
      4 C3          0.7194   -1.9909   -1.1572 C.3       1 <0>         0.1406
      5 H1          1.1068   -2.3130   -0.1906 H         1 <0>         0.1524
      6 C4          1.5394   -2.6111   -2.2589 C.ar      1 <0>        -0.1791
      7 C5          1.4084   -2.1543   -3.5576 C.ar      1 <0>        -0.0540
      8 C6          2.1585   -2.7212   -4.5697 C.ar      1 <0>        -0.1928
      9 C7          3.0443   -3.7495   -4.2827 C.ar      1 <0>         0.1877
     10 C8          3.1746   -4.2061   -2.9786 C.ar      1 <0>        -0.1258
     11 C9          2.4254   -3.6318   -1.9687 C.ar      1 <0>        -0.0204
     12 Br1         4.3804   -5.6080   -2.5826 Br        1 <0>        -0.0045
     13 O1          3.7830   -4.3091   -5.2770 O.3       1 <0>        -0.2921
     14 C10         3.5967   -3.7891   -6.5949 C.3       1 <0>         0.0188
     15 C11        -0.7167   -2.4270   -1.2934 C.ar      1 <0>        -0.1418
     16 C12        -1.6055   -1.6606   -2.0243 C.ar      1 <0>        -0.1197
     17 C13        -2.9225   -2.0606   -2.1493 C.ar      1 <0>        -0.1108
     18 C14        -3.3511   -3.2273   -1.5438 C.ar      1 <0>        -0.0489
     19 C15        -2.4624   -3.9939   -0.8140 C.ar      1 <0>        -0.1087
     20 C16        -1.1439   -3.5960   -0.6925 C.ar      1 <0>        -0.0396
     21 C17        -0.1736   -4.4346    0.0989 C.3       1 <0>        -0.1375
     22 C18        -4.7874   -3.6629   -1.6793 C.3       1 <0>        -0.1294
     23 H2          1.2251    1.9104   -0.2015 H         1 <0>         0.0817
     24 H3         -0.2880    1.9301   -1.1387 H         1 <0>         0.0795
     25 H4         -0.3391    2.0491    0.6365 H         1 <0>         0.1087
     26 H5          0.5662   -0.2524    0.8169 H         1 <0>         0.1339
     27 H6         -0.9469   -0.2327   -0.1204 H         1 <0>         0.1342
     28 H7          0.3646   -0.2226   -2.1119 H         1 <0>         0.4204
     29 H8          0.7187   -1.3538   -3.7808 H         1 <0>         0.1284
     30 H9          2.0551   -2.3644   -5.5838 H         1 <0>         0.1496
     31 H10         2.5292   -3.9838   -0.9529 H         1 <0>         0.1497
     32 H11         4.2444   -4.3223   -7.2908 H         1 <0>         0.1152
     33 H12         2.5566   -3.9202   -6.8935 H         1 <0>         0.0645
     34 H13         3.8469   -2.7283   -6.6057 H         1 <0>         0.0643
     35 H14        -1.2707   -0.7492   -2.4973 H         1 <0>         0.1138
     36 H15        -3.6170   -1.4616   -2.7197 H         1 <0>         0.1344
     37 H16        -2.7973   -4.9051   -0.3407 H         1 <0>         0.1364
     38 H17        -0.2375   -4.1663    1.1535 H         1 <0>         0.0843
     39 H18        -0.4210   -5.4891   -0.0233 H         1 <0>         0.0842
     40 H19         0.8395   -4.2550   -0.2609 H         1 <0>         0.0676
     41 H20        -4.8935   -4.2963   -2.5600 H         1 <0>         0.0819
     42 H21        -5.0827   -4.2225   -0.7917 H         1 <0>         0.0758
     43 H22        -5.4250   -2.7851   -1.7841 H         1 <0>         0.0750
     44 H23         1.7653   -0.2408   -1.2444 H         1 <0>         0.4320
@<TRIPOS>BOND
     1    1    2 1
     2    1   23 1
     3    1   24 1
     4    1   25 1
     5    2    3 1
     6    2   26 1
     7    2   27 1
     8    3    4 1
     9    3   28 1
    10    3   44 1
    11    4    5 1
    12    4    6 1
    13    4   15 1
    14    6   11 ar
    15    6    7 ar
    16    7    8 ar
    17    7   29 1
    18    8    9 ar
    19    8   30 1
    20    9   10 ar
    21    9   13 1
    22   10   11 ar
    23   10   12 1
    24   11   31 1
    25   13   14 1
    26   14   32 1
    27   14   33 1
    28   14   34 1
    29   15   20 ar
    30   15   16 ar
    31   16   17 ar
    32   16   35 1
    33   17   18 ar
    34   17   36 1
    35   18   19 ar
    36   18   22 1
    37   19   20 ar
    38   19   37 1
    39   20   21 1
    40   21   38 1
    41   21   39 1
    42   21   40 1
    43   22   41 1
    44   22   42 1
    45   22   43 1
@<TRIPOS>MOLECULE
ZINC37101347
   36    38     0     0     0
SMALL
USER_CHARGES

@<TRIPOS>ATOM
      1 C1         -0.0184    1.5028    0.0103 C.3       1 <0>        -0.1218
      2 C2          0.0021   -0.0041    0.0020 C.ar      1 <0>        -0.1692
      3 C3          0.0057   -0.6779   -1.1817 C.ar      1 <0>         0.0218
      4 C4          0.0244   -2.0679   -1.2187 C.ar      1 <0>        -0.2000
      5 C5          0.0403   -2.8021   -0.0505 C.ar      1 <0>         0.2759
      6 C6          0.0374   -2.1287    1.1891 C.ar      1 <0>        -0.1360
      7 C7          0.0232   -0.7123    1.2152 C.ar      1 <0>         0.1753
      8 N1          0.0247   -0.0692    2.3880 N.ar      1 <0>        -0.4674
      9 C8          0.0439   -0.7237    3.5240 C.ar      1 <0>         0.2150
     10 C9          0.0642   -2.1153    3.5673 C.ar      1 <0>        -0.1906
     11 C10         0.0527   -2.8338    2.4044 C.ar      1 <0>         0.0573
     12 N2          0.0586   -4.1932   -0.0948 N.pl3     1 <0>        -0.7106
     13 C11         0.0610   -4.8850   -1.3861 C.3       1 <0>         0.1580
     14 C12         0.0820   -6.3745   -1.1580 C.ar      1 <0>        -0.1476
     15 C13         1.2707   -7.0726   -1.2594 C.ar      1 <0>        -0.0604
     16 C14         1.2908   -8.4385   -1.0499 C.ar      1 <0>        -0.1000
     17 C15         0.1211   -9.1088   -0.7388 C.ar      1 <0>        -0.0504
     18 C16        -1.0690   -8.4123   -0.6374 C.ar      1 <0>        -0.1276
     19 C17        -1.0883   -7.0429   -0.8412 C.ar      1 <0>         0.1261
     20 F1         -2.2496   -6.3603   -0.7370 F         1 <0>        -0.1258
     21 Br1         0.1499  -10.9779   -0.4530 Br        1 <0>        -0.0146
     22 H1          1.0042    1.8801    0.0026 H         1 <0>         0.0852
     23 H2         -0.5455    1.8639   -0.8728 H         1 <0>         0.0929
     24 H3         -0.5286    1.8543    0.9071 H         1 <0>         0.0606
     25 H4         -0.0065   -0.1228   -2.1080 H         1 <0>         0.1543
     26 H5          0.0262   -2.5776   -2.1709 H         1 <0>         0.1503
     27 H6          0.0444   -0.1688    4.4506 H         1 <0>         0.2102
     28 H7          0.0805   -2.6264    4.5185 H         1 <0>         0.1843
     29 H8          0.0674   -3.9136    2.4192 H         1 <0>         0.1641
     30 H9          0.0697   -4.7045    0.7294 H         1 <0>         0.4074
     31 H10        -0.8356   -4.6155   -1.9444 H         1 <0>         0.0920
     32 H11         0.9442   -4.5919   -1.9537 H         1 <0>         0.0956
     33 H12         2.1842   -6.5504   -1.5029 H         1 <0>         0.1480
     34 H13         2.2201   -8.9830   -1.1293 H         1 <0>         0.1486
     35 H14        -1.9823   -8.9354   -0.3954 H         1 <0>         0.1527
     36 H15         0.0116    0.9006    2.3983 H         1 <0>         0.4464
@<TRIPOS>BOND
     1    1    2 1
     2    1   22 1
     3    1   23 1
     4    1   24 1
     5    2    7 ar
     6    2    3 ar
     7    3    4 ar
     8    3   25 1
     9    4    5 ar
    10    4   26 1
    11    5    6 ar
    12    5   12 1
    13    6   11 ar
    14    6    7 ar
    15    7    8 ar
    16    8    9 ar
    17    8   36 1
    18    9   10 ar
    19    9   27 1
    20   10   11 ar
    21   10   28 1
    22   11   29 1
    23   12   13 1
    24   12   30 1
    25   13   14 1
    26   13   31 1
    27   13   32 1
    28   14   19 ar
    29   14   15 ar
    30   15   16 ar
    31   15   33 1
    32   16   17 ar
    33   16   34 1
    34   17   18 ar
    35   17   21 1
    36   18   19 ar
    37   18   35 1
    38   19   20 1
@<TRIPOS>MOLECULE
ZINC01510393
   47    50     0     0     0
SMALL
USER_CHARGES

@<TRIPOS>ATOM
      1 C1          0.3402    1.5261   -1.6185 C.ar      1 <0>        -0.0027
      2 C2          0.1679    0.3077   -0.9907 C.ar      1 <0>        -0.1440
      3 C3          1.2697   -0.4131   -0.5578 C.ar      1 <0>         0.2144
      4 C4          2.5588    0.0995   -0.7597 C.ar      1 <0>        -0.2046
      5 C5          2.7197    1.3326   -1.3957 C.ar      1 <0>        -0.0341
      6 C6          1.6122    2.0368   -1.8202 C.ar      1 <0>        -0.1142
      7 Br1         1.8310    3.7059   -2.6817 Br        1 <0>        -0.0005
      8 C7          3.7376   -0.6582   -0.3031 C.2       1 <0>         0.3820
      9 N1          4.8142   -0.0310    0.0473 N.pl3     1 <0>        -0.5271
     10 C8          4.7766    1.4149    0.2804 C.3       1 <0>         0.0281
     11 C9          5.2782    1.7167    1.6940 C.3       1 <0>        -0.0637
     12 C10         6.7350    1.3250    1.7919 C.3       1 <0>        -0.0985
     13 C11         7.5095    1.8565    2.9590 C.3       1 <0>        -0.0746
     14 H1          8.5566    1.8414    2.6565 H         1 <0>         0.0657
     15 C12         7.4371    1.0569    4.2300 C.3       1 <0>        -0.1140
     16 C13         6.1113    0.4238    4.5111 C.3       1 <0>        -0.1058
     17 C14         4.9279    1.2347    4.0862 C.3       1 <0>        -0.0786
     18 H2          4.1177    0.8815    4.7241 H         1 <0>         0.0549
     19 C15         4.4408    0.9200    2.6990 C.3       1 <0>        -0.1027
     20 C16         5.0336    2.7109    4.4052 C.3       1 <0>        -0.1035
     21 C17         5.6978    3.5373    3.3199 C.3       1 <0>        -0.0829
     22 C18         7.1890    3.3185    3.2651 C.3       1 <0>        -0.1123
     23 C19         5.0843    3.2065    1.9819 C.3       1 <0>        -0.1006
     24 O1          1.1013   -1.6101    0.0595 O.3       1 <0>        -0.4874
     25 H3         -0.5215    2.0817   -1.9579 H         1 <0>         0.1602
     26 H4         -0.8268   -0.0837   -0.8367 H         1 <0>         0.1642
     27 H5          3.7096    1.7341   -1.5545 H         1 <0>         0.1546
     28 H6          3.7031   -1.7368   -0.2607 H         1 <0>         0.2153
     29 H7          5.4150    1.9168   -0.4466 H         1 <0>         0.1289
     30 H8          3.7528    1.7736    0.1739 H         1 <0>         0.1325
     31 H9          6.7881    0.2367    1.8221 H         1 <0>         0.0570
     32 H10         7.2330    1.6559    0.8806 H         1 <0>         0.0654
     33 H11         8.1897    0.2698    4.1831 H         1 <0>         0.0592
     34 H12         7.6865    1.7141    5.0631 H         1 <0>         0.0669
     35 H13         6.0727   -0.5372    3.9982 H         1 <0>         0.0538
     36 H14         6.0370    0.2411    5.5831 H         1 <0>         0.0652
     37 H15         3.3978    1.2287    2.6292 H         1 <0>         0.0691
     38 H16         4.5214   -0.1441    2.4770 H         1 <0>         0.0595
     39 H17         4.0300    3.1017    4.5728 H         1 <0>         0.0622
     40 H18         5.6046    2.8260    5.3265 H         1 <0>         0.0699
     41 H19         5.5121    4.5903    3.5317 H         1 <0>         0.0771
     42 H20         7.6394    3.5961    4.2181 H         1 <0>         0.0723
     43 H21         7.5955    3.9512    2.4761 H         1 <0>         0.0634
     44 H22         5.5845    3.7991    1.2159 H         1 <0>         0.0731
     45 H23         4.0207    3.4443    1.9982 H         1 <0>         0.0733
     46 H24         1.0157   -2.3574   -0.5482 H         1 <0>         0.4180
     47 H25         5.6459   -0.5182    0.1555 H         1 <0>         0.4455
@<TRIPOS>BOND
     1    1    6 ar
     2    1    2 ar
     3    1   25 1
     4    2    3 ar
     5    2   26 1
     6    3    4 ar
     7    3   24 1
     8    4    5 ar
     9    4    8 1
    10    5    6 ar
    11    5   27 1
    12    6    7 1
    13    8    9 2
    14    8   28 1
    15    9   10 1
    16    9   47 1
    17   10   11 1
    18   10   29 1
    19   10   30 1
    20   11   19 1
    21   11   23 1
    22   11   12 1
    23   12   13 1
    24   12   31 1
    25   12   32 1
    26   13   14 1
    27   13   22 1
    28   13   15 1
    29   15   16 1
    30   15   33 1
    31   15   34 1
    32   16   17 1
    33   16   35 1
    34   16   36 1
    35   17   18 1
    36   17   19 1
    37   17   20 1
    38   19   37 1
    39   19   38 1
    40   20   21 1
    41   20   39 1
    42   20   40 1
    43   21   22 1
    44   21   23 1
    45   21   41 1
    46   22   42 1
    47   22   43 1
    48   23   44 1
    49   23   45 1
    50   24   46 1
@<TRIPOS>MOLECULE
ZINC13372451
   66    70     0     0     0
SMALL
USER_CHARGES

@<TRIPOS>ATOM
      1 C1         -0.1006    1.6486    0.1856 C.3       1 <0>        -0.1520
      2 C2         -0.0400    0.0969    0.1517 C.3       1 <0>        -0.0327
      3 C3          0.7710   -0.2532   -1.0979 C.3       1 <0>        -0.1010
      4 C4          1.2644   -1.6907   -1.1224 C.3       1 <0>        -0.1601
      5 C5          2.0323   -2.0229    0.1582 C.3       1 <0>         0.1040
      6 H1          2.3536   -3.0647    0.1277 H         1 <0>         0.0522
      7 C6          1.0995   -1.8136    1.3526 C.3       1 <0>        -0.1073
      8 C7          0.6770   -0.3483    1.4134 C.3       1 <0>        -0.0678
      9 H2          1.5917    0.2614    1.5218 H         1 <0>         0.0780
     10 C8         -0.1733   -0.1197    2.6637 C.3       1 <0>        -0.1213
     11 C9         -1.4930   -0.8895    2.5000 C.3       1 <0>        -0.1176
     12 C10        -2.2516   -0.2743    1.3351 C.3       1 <0>        -0.0639
     13 H3         -2.3347    0.8197    1.5585 H         1 <0>         0.0697
     14 C11        -1.4697   -0.3999    0.0280 C.3       1 <0>        -0.0583
     15 H4         -1.9698    0.2956   -0.6884 H         1 <0>         0.0526
     16 C12        -1.5759   -1.7766   -0.6033 C.3       1 <0>        -0.1175
     17 C13        -3.0462   -2.1908   -0.8039 C.3       1 <0>        -0.1123
     18 C14        -3.7307   -2.1909    0.5422 C.3       1 <0>        -0.0645
     19 C15        -3.6500   -0.7790    1.1512 C.3       1 <0>        -0.0734
     20 H5         -4.1695   -0.0722    0.4594 H         1 <0>         0.0574
     21 C16        -4.5445   -0.9204    2.3888 C.3       1 <0>        -0.1225
     22 C17        -5.7510   -1.7274    1.8285 C.3       1 <0>        -0.1333
     23 C18        -5.2485   -2.4355    0.5432 C.3       1 <0>         0.0746
     24 H6         -5.4427   -3.5059    0.6047 H         1 <0>         0.1340
     25 N1         -5.8791   -1.8630   -0.6416 N.pl3     1 <0>        -0.5277
     26 C19        -6.5232   -2.6256   -1.4636 C.2       1 <0>         0.3683
     27 C20        -7.1612   -2.0464   -2.6622 C.ar      1 <0>        -0.1822
     28 C21        -7.0662   -0.6764   -2.9145 C.ar      1 <0>        -0.0653
     29 C22        -7.6648   -0.1418   -4.0364 C.ar      1 <0>        -0.1204
     30 C23        -8.3581   -0.9598   -4.9108 C.ar      1 <0>        -0.0395
     31 C24        -8.4565   -2.3182   -4.6667 C.ar      1 <0>        -0.1238
     32 C25        -7.8575   -2.8670   -3.5519 C.ar      1 <0>        -0.0300
     33 C26        -3.1176   -3.2672    1.4405 C.3       1 <0>        -0.1533
     34 O1          3.1722   -1.1739    0.2757 O.3       1 <0>        -0.5607
     35 H7          0.9119    2.0512    0.2150 H         1 <0>         0.0590
     36 H8         -0.6102    2.0119   -0.7069 H         1 <0>         0.0506
     37 H9         -0.6460    1.9717    1.0723 H         1 <0>         0.0560
     38 H10         0.1494   -0.0683   -1.9820 H         1 <0>         0.0557
     39 H11         1.6315    0.4251   -1.1556 H         1 <0>         0.0672
     40 H12         0.4439   -2.3918   -1.2443 H         1 <0>         0.0782
     41 H13         1.9449   -1.8194   -1.9758 H         1 <0>         0.0598
     42 H14         0.2272   -2.4548    1.2520 H         1 <0>         0.0743
     43 H15         1.6300   -2.0761    2.2712 H         1 <0>         0.0678
     44 H16         0.3553   -0.5063    3.5365 H         1 <0>         0.0654
     45 H17        -0.3803    0.9362    2.8007 H         1 <0>         0.0652
     46 H18        -1.2414   -1.9284    2.3139 H         1 <0>         0.0723
     47 H19        -2.0707   -0.8012    3.4183 H         1 <0>         0.0640
     48 H20        -1.1188   -1.7336   -1.6019 H         1 <0>         0.0725
     49 H21        -1.0533   -2.5151   -0.0123 H         1 <0>         0.0782
     50 H22        -3.5210   -1.4784   -1.4809 H         1 <0>         0.0560
     51 H23        -3.0838   -3.1899   -1.2434 H         1 <0>         0.0712
     52 H24        -4.0485   -1.4569    3.1900 H         1 <0>         0.0898
     53 H25        -4.8747    0.0624    2.7335 H         1 <0>         0.0801
     54 H26        -6.0817   -2.4633    2.5589 H         1 <0>         0.1015
     55 H27        -6.5677   -1.0483    1.5818 H         1 <0>         0.0807
     56 H28        -6.5944   -3.6863   -1.2732 H         1 <0>         0.2094
     57 H29        -6.5257   -0.0367   -2.2326 H         1 <0>         0.1274
     58 H30        -7.5925    0.9178   -4.2326 H         1 <0>         0.1458
     59 H31        -8.8249   -0.5361   -5.7877 H         1 <0>         0.1465
     60 H32        -8.9995   -2.9510   -5.3532 H         1 <0>         0.1491
     61 H33        -7.9309   -3.9282   -3.3651 H         1 <0>         0.1495
     62 H34        -2.0353   -3.1414    1.4713 H         1 <0>         0.0833
     63 H35        -3.5230   -3.1740    2.4479 H         1 <0>         0.0710
     64 H36        -3.3576   -4.2530    1.0420 H         1 <0>         0.0636
     65 H37         3.7988   -1.2531   -0.4565 H         1 <0>         0.3783
     66 H38        -5.8151   -0.9103   -0.8126 H         1 <0>         0.4282
@<TRIPOS>BOND
     1    1    2 1
     2    1   35 1
     3    1   36 1
     4    1   37 1
     5    2    8 1
     6    2   14 1
     7    2    3 1
     8    3    4 1
     9    3   38 1
    10    3   39 1
    11    4    5 1
    12    4   40 1
    13    4   41 1
    14    5    6 1
    15    5    7 1
    16    5   34 1
    17    7    8 1
    18    7   42 1
    19    7   43 1
    20    8    9 1
    21    8   10 1
    22   10   11 1
    23   10   44 1
    24   10   45 1
    25   11   12 1
    26   11   46 1
    27   11   47 1
    28   12   13 1
    29   12   19 1
    30   12   14 1
    31   14   15 1
    32   14   16 1
    33   16   17 1
    34   16   48 1
    35   16   49 1
    36   17   18 1
    37   17   50 1
    38   17   51 1
    39   18   23 1
    40   18   19 1
    41   18   33 1
    42   19   20 1
    43   19   21 1
    44   21   22 1
    45   21   52 1
    46   21   53 1
    47   22   23 1
    48   22   54 1
    49   22   55 1
    50   23   24 1
    51   23   25 1
    52   25   26 2
    53   25   66 1
    54   26   27 1
    55   26   56 1
    56   27   32 ar
    57   27   28 ar
    58   28   29 ar
    59   28   57 1
    60   29   30 ar
    61   29   58 1
    62   30   31 ar
    63   30   59 1
    64   31   32 ar
    65   31   60 1
    66   32   61 1
    67   33   62 1
    68   33   63 1
    69   33   64 1
    70   34   65 1
@<TRIPOS>MOLECULE
ZINC11842023
   52    53     0     0     0
SMALL
USER_CHARGES
2-[(2S)-1-[(2-chloro-6-fluoro-phenyl)methyl]-3-oxo-piperazin-2-yl]-N-(3-hydroxy-2,2-dimethyl-propyl)acetamide
@<TRIPOS>ATOM
      1 C1          4.3912   -0.3850   -2.1029 C.3       1 <0>        -0.1422
      2 C2          4.3539    1.1393   -2.2296 C.3       1 <0>        -0.0775
      3 C3          3.6326    1.5261   -3.5223 C.3       1 <0>        -0.1404
      4 C4          3.6084    1.7325   -1.0325 C.3       1 <0>         0.1248
      5 N1          2.2396    1.2114   -1.0026 N.am      1 <0>        -0.6970
      6 C5          1.3922    1.5985   -0.0286 C.2       1 <0>         0.5142
      7 O1          1.7630    2.3783    0.8232 O.2       1 <0>        -0.5510
      8 C6         -0.0159    1.0625    0.0022 C.3       1 <0>        -0.1712
      9 C7         -0.7154    1.5393    1.2766 C.3       1 <0>         0.0396
     10 H1         -1.7348    1.1539    1.2956 H         1 <0>         0.1783
     11 C8          0.0312    1.0284    2.4763 C.2       1 <0>         0.5218
     12 O2          0.4295   -0.1171    2.4683 O.2       1 <0>        -0.4945
     13 N2          0.2747    1.7838    3.5524 N.am      1 <0>        -0.7094
     14 C9         -0.1298    3.1835    3.6476 C.3       1 <0>         0.0870
     15 C10        -1.2085    3.4895    2.6069 C.3       1 <0>        -0.0226
     16 C11        -1.5993    3.5280    0.2152 C.3       1 <0>         0.0363
     17 C12        -1.3331    4.9998    0.0309 C.ar      1 <0>        -0.1898
     18 C13        -2.0716    5.9315    0.7405 C.ar      1 <0>         0.1370
     19 C14        -1.8218    7.2831    0.5749 C.ar      1 <0>        -0.1385
     20 C15        -0.8436    7.7022   -0.3072 C.ar      1 <0>        -0.0398
     21 C16        -0.1106    6.7724   -1.0201 C.ar      1 <0>        -0.1086
     22 C17        -0.3548    5.4208   -0.8513 C.ar      1 <0>         0.0096
     23 Cl1         0.5673    4.2536   -1.7464 Cl        1 <0>        -0.0363
     24 F1         -3.0317    5.5217    1.5982 F         1 <0>        -0.1205
     25 C18         5.7835    1.6836   -2.2608 C.3       1 <0>         0.0883
     26 O3          6.4798    1.1295   -3.3789 O.3       1 <0>        -0.5665
     27 H2          3.3727   -0.7727   -2.0806 H         1 <0>         0.0510
     28 H3          4.9223   -0.8076   -2.9557 H         1 <0>         0.0752
     29 H4          4.9050   -0.6605   -1.1819 H         1 <0>         0.0589
     30 H5          3.6061    2.6121   -3.6126 H         1 <0>         0.0561
     31 H6          4.1638    1.1035   -4.3751 H         1 <0>         0.0759
     32 H7          2.6142    1.1384   -3.5000 H         1 <0>         0.0491
     33 H8          3.5819    2.8185   -1.1227 H         1 <0>         0.0787
     34 H9          4.1223    1.4570   -0.1115 H         1 <0>         0.0810
     35 H10         1.9430    0.5878   -1.6838 H         1 <0>         0.4114
     36 H11        -0.5616    1.4246   -0.8691 H         1 <0>         0.1306
     37 H12         0.0098   -0.0271   -0.0122 H         1 <0>         0.1580
     38 H13         0.7409    1.3841    4.3033 H         1 <0>         0.4264
     39 H14         0.7351    3.8228    3.4706 H         1 <0>         0.0988
     40 H15        -0.5238    3.3791    4.6450 H         1 <0>         0.1289
     41 H16        -1.3790    4.5651    2.5624 H         1 <0>         0.1441
     42 H17        -2.1337    2.9815    2.8791 H         1 <0>         0.1447
     43 H18        -1.3749    2.9994   -0.7112 H         1 <0>         0.1414
     44 H19        -2.6474    3.3780    0.4744 H         1 <0>         0.1517
     45 H20        -2.3942    8.0103    1.1317 H         1 <0>         0.1599
     46 H21        -0.6518    8.7568   -0.4392 H         1 <0>         0.1605
     47 H22         0.6534    7.1008   -1.7092 H         1 <0>         0.1566
     48 H23         5.7570    2.7695   -2.3511 H         1 <0>         0.0492
     49 H24         6.2974    1.4080   -1.3399 H         1 <0>         0.0505
     50 H25         7.3948    1.4314   -3.4614 H         1 <0>         0.3874
     51 N3         -0.7259    3.0141    1.2948 N.4       1 <0>        -0.3955
     52 H26         0.2296    3.3584    1.1439 H         1 <0>         0.4381
@<TRIPOS>BOND
     1    1    2 1
     2    1   27 1
     3    1   28 1
     4    1   29 1
     5    2    3 1
     6    2    4 1
     7    2   25 1
     8    3   30 1
     9    3   31 1
    10    3   32 1
    11    4    5 1
    12    4   33 1
    13    4   34 1
    14    5    6 am
    15    5   35 1
    16    6    7 2
    17    6    8 1
    18    8    9 1
    19    8   36 1
    20    8   37 1
    21    9   10 1
    22    9   11 1
    23    9   51 1
    24   11   12 2
    25   11   13 am
    26   13   14 1
    27   13   38 1
    28   14   15 1
    29   14   39 1
    30   14   40 1
    31   15   41 1
    32   15   42 1
    33   15   51 1
    34   16   17 1
    35   16   43 1
    36   16   44 1
    37   16   51 1
    38   17   22 ar
    39   17   18 ar
    40   18   19 ar
    41   18   24 1
    42   19   20 ar
    43   19   45 1
    44   20   21 ar
    45   20   46 1
    46   21   22 ar
    47   21   47 1
    48   22   23 1
    49   25   26 1
    50   25   48 1
    51   25   49 1
    52   26   50 1
    53   51   52 1
@<TRIPOS>MOLECULE
ZINC40783334
   48    50     0     0     0
SMALL
USER_CHARGES

@<TRIPOS>ATOM
      1 C1          1.8039    2.2761    0.5096 C.3       1 <0>        -0.0473
      2 N1          1.5153    0.8392    0.4099 N.4       1 <0>        -0.3854
      3 C2          2.1150    0.3054   -0.8189 C.3       1 <0>        -0.0044
      4 C3          1.7492   -1.1728   -0.9691 C.3       1 <0>        -0.1610
      5 C4          2.2802   -1.9497    0.2391 C.3       1 <0>         0.1706
      6 C5          1.7063   -1.3370    1.5199 C.3       1 <0>        -0.1661
      7 C6          2.0737    0.1473    1.5778 C.3       1 <0>        -0.0022
      8 N2          1.8680   -3.3520    0.1395 N.pl3     1 <0>        -0.6435
      9 C7          0.4446   -3.6958    0.0967 C.3       1 <0>         0.1054
     10 C8          2.8273   -4.3560    0.0856 C.ar      1 <0>         0.3570
     11 C9          3.2169   -5.0275    1.2463 C.ar      1 <0>         0.0787
     12 C10         4.1840   -6.0279    1.1359 C.ar      1 <0>         0.3762
     13 N3          4.6943   -6.3018   -0.0628 N.ar      1 <0>        -0.5251
     14 C11         4.2987   -5.6441   -1.1335 C.ar      1 <0>         0.2971
     15 N4          3.3848   -4.6964   -1.0737 N.ar      1 <0>        -0.5207
     16 N5          4.6080   -6.7271    2.2603 N.pl3     1 <0>        -0.6464
     17 C12         5.6717   -7.6301    2.1624 C.ar      1 <0>         0.1795
     18 C13         6.6174   -7.4847    1.1557 C.ar      1 <0>        -0.1071
     19 C14         7.6667   -8.3778    1.0612 C.ar      1 <0>        -0.0784
     20 C15         7.7768   -9.4172    1.9683 C.ar      1 <0>        -0.0468
     21 C16         6.8366   -9.5652    2.9726 C.ar      1 <0>        -0.0758
     22 C17         5.7875   -8.6713    3.0757 C.ar      1 <0>        -0.0679
     23 Cl1         4.6123   -8.8526    4.3405 Cl        1 <0>        -0.0556
     24 Cl2         9.0970  -10.5378    1.8456 Cl        1 <0>        -0.0521
     25 N6          2.6517   -4.7048    2.4906 N.pl3     1 <0>        -0.8635
     26 H1          2.8827    2.4287    0.5416 H         1 <0>         0.1220
     27 H2          1.3897    2.7909   -0.3572 H         1 <0>         0.1248
     28 H3          1.3534    2.6749    1.4186 H         1 <0>         0.1240
     29 H4          1.7385    0.8614   -1.6776 H         1 <0>         0.1335
     30 H5          3.1989    0.4076   -0.7679 H         1 <0>         0.1290
     31 H6          0.6653   -1.2762   -1.0205 H         1 <0>         0.0902
     32 H7          2.1968   -1.5677   -1.8811 H         1 <0>         0.1196
     33 H8          3.3682   -1.8891    0.2618 H         1 <0>         0.0931
     34 H9          0.6215   -1.4437    1.5201 H         1 <0>         0.0935
     35 H10         2.1233   -1.8493    2.3870 H         1 <0>         0.1118
     36 H11         3.1586    0.2529    1.5778 H         1 <0>         0.1292
     37 H12         1.6668    0.5866    2.4886 H         1 <0>         0.1333
     38 H13         0.0842   -3.6244   -0.9295 H         1 <0>         0.0493
     39 H14         0.3056   -4.7139    0.4605 H         1 <0>         0.0665
     40 H15        -0.1152   -3.0051    0.7273 H         1 <0>         0.0622
     41 H16         4.7340   -5.8918   -2.0904 H         1 <0>         0.2020
     42 H17         4.1663   -6.5887    3.1127 H         1 <0>         0.4175
     43 H18         6.5321   -6.6742    0.4471 H         1 <0>         0.1656
     44 H19         8.4019   -8.2651    0.2782 H         1 <0>         0.1449
     45 H20         6.9248  -10.3774    3.6789 H         1 <0>         0.1490
     46 H21         1.9213   -4.0684    2.5411 H         1 <0>         0.4025
     47 H22         2.9915   -5.1182    3.2995 H         1 <0>         0.3972
     48 H23         0.5165    0.6989    0.3828 H         1 <0>         0.4245
@<TRIPOS>BOND
     1    1    2 1
     2    1   26 1
     3    1   27 1
     4    1   28 1
     5    2    7 1
     6    2    3 1
     7    2   48 1
     8    3    4 1
     9    3   29 1
    10    3   30 1
    11    4    5 1
    12    4   31 1
    13    4   32 1
    14    5    6 1
    15    5    8 1
    16    5   33 1
    17    6    7 1
    18    6   34 1
    19    6   35 1
    20    7   36 1
    21    7   37 1
    22    8    9 1
    23    8   10 1
    24    9   38 1
    25    9   39 1
    26    9   40 1
    27   10   15 ar
    28   10   11 ar
    29   11   12 ar
    30   11   25 1
    31   12   13 ar
    32   12   16 1
    33   13   14 ar
    34   14   15 ar
    35   14   41 1
    36   16   17 1
    37   16   42 1
    38   17   22 ar
    39   17   18 ar
    40   18   19 ar
    41   18   43 1
    42   19   20 ar
    43   19   44 1
    44   20   21 ar
    45   20   24 1
    46   21   22 ar
    47   21   45 1
    48   22   23 1
    49   25   46 1
    50   25   47 1
@<TRIPOS>MOLECULE
ZINC61749917
   60    62     0     0     0
SMALL
USER_CHARGES

@<TRIPOS>ATOM
      1 C1          0.4930   -4.1711   -4.6591 C.3       1 <0>        -0.1312
      2 C2         -0.0744   -4.0409   -3.2690 C.ar      1 <0>        -0.0486
      3 C3          0.5389   -4.6826   -2.2093 C.ar      1 <0>        -0.1064
      4 C4          0.0185   -4.5631   -0.9342 C.ar      1 <0>        -0.0889
      5 C5         -1.1149   -3.8016   -0.7188 C.ar      1 <0>        -0.1506
      6 C6         -1.7276   -3.1591   -1.7784 C.ar      1 <0>        -0.1110
      7 C7         -1.2047   -3.2751   -3.0528 C.ar      1 <0>        -0.1050
      8 C8         -1.6828   -3.6721    0.6711 C.3       1 <0>         0.0731
      9 C9         -2.8691   -4.6254    0.8281 C.3       1 <0>         0.1274
     10 N1         -2.4100   -6.0072    0.6662 N.am      1 <0>        -0.7376
     11 C10        -3.3019   -7.0176    0.6622 C.2       1 <0>         0.7115
     12 O1         -4.4876   -6.7823    0.7930 O.2       1 <0>        -0.5611
     13 N2         -2.8795   -8.2887    0.5133 N.am      1 <0>        -0.6723
     14 C11        -3.7893   -9.3464    0.6272 C.ar      1 <0>         0.1469
     15 C12        -4.9573   -9.1822    1.3623 C.ar      1 <0>        -0.0995
     16 C13        -5.8588  -10.2235    1.4779 C.ar      1 <0>        -0.1104
     17 C14        -5.6054  -11.4332    0.8636 C.ar      1 <0>        -0.0949
     18 C15        -4.4355  -11.6081    0.1228 C.ar      1 <0>        -0.1191
     19 C16        -3.5280  -10.5555    0.0023 C.ar      1 <0>        -0.0506
     20 C17        -2.2652  -10.7342   -0.8005 C.3       1 <0>        -0.1190
     21 C18        -4.1614  -12.9030   -0.5362 C.2       1 <0>         0.5569
     22 O2         -3.0916  -13.0932   -1.0810 O.2       1 <0>        -0.5284
     23 N3         -5.0977  -13.8724   -0.5328 N.am      1 <0>        -0.7294
     24 C19        -4.8261  -15.1554   -1.1858 C.3       1 <0>         0.0856
     25 N4         -2.1323   -2.2908    0.8896 N.4       1 <0>        -0.3884
     26 C20        -2.5163   -2.0960    2.3112 C.3       1 <0>        -0.0103
     27 C21        -2.4081   -0.5621    2.5007 C.3       1 <0>        -0.1438
     28 C22        -1.1706   -0.1951    1.6499 C.3       1 <0>        -0.1439
     29 C23        -1.0213   -1.3472    0.6391 C.3       1 <0>        -0.0033
     30 H1          1.2200   -3.3774   -4.8306 H         1 <0>         0.0828
     31 H2          0.9815   -5.1400   -4.7628 H         1 <0>         0.0768
     32 H3         -0.3123   -4.0902   -5.3892 H         1 <0>         0.0758
     33 H4          1.4244   -5.2776   -2.3776 H         1 <0>         0.1374
     34 H5          0.4972   -5.0650   -0.1064 H         1 <0>         0.1318
     35 H6         -2.6133   -2.5644   -1.6102 H         1 <0>         0.1185
     36 H7         -1.6813   -2.7702   -3.8800 H         1 <0>         0.1356
     37 H8         -0.9148   -3.9243    1.4023 H         1 <0>         0.1482
     38 H9         -3.3061   -4.5015    1.8189 H         1 <0>         0.0915
     39 H10        -3.6189   -4.4005    0.0696 H         1 <0>         0.0931
     40 H11        -1.4640   -6.1949    0.5619 H         1 <0>         0.4028
     41 H12        -1.9451   -8.4707    0.3272 H         1 <0>         0.4108
     42 H13        -5.1610   -8.2379    1.8452 H         1 <0>         0.1513
     43 H14        -6.7645  -10.0902    2.0510 H         1 <0>         0.1356
     44 H15        -6.3121  -12.2446    0.9566 H         1 <0>         0.1297
     45 H16        -1.5102  -11.2243   -0.1858 H         1 <0>         0.0790
     46 H17        -2.4752  -11.3482   -1.6763 H         1 <0>         0.1011
     47 H18        -1.8968   -9.7594   -1.1201 H         1 <0>         0.0492
     48 H19        -5.9514  -13.7206   -0.0981 H         1 <0>         0.4023
     49 H20        -4.6233  -14.9889   -2.2437 H         1 <0>         0.0631
     50 H21        -3.9599  -15.6244   -0.7192 H         1 <0>         0.0636
     51 H22        -5.6932  -15.8075   -1.0803 H         1 <0>         0.0795
     52 H23        -3.5382   -2.4338    2.4835 H         1 <0>         0.1392
     53 H24        -1.8219   -2.6151    2.9718 H         1 <0>         0.1365
     54 H25        -3.2993   -0.0627    2.1206 H         1 <0>         0.0996
     55 H26        -2.2430   -0.3136    3.5490 H         1 <0>         0.1188
     56 H27        -1.3363    0.7473    1.1278 H         1 <0>         0.1060
     57 H28        -0.2842   -0.1281    2.2808 H         1 <0>         0.1048
     58 H29        -0.0660   -1.8504    0.7880 H         1 <0>         0.1312
     59 H30        -1.0854   -0.9597   -0.3777 H         1 <0>         0.1314
     60 H31        -2.9121   -2.0785    0.2855 H         1 <0>         0.4254
@<TRIPOS>BOND
     1    1    2 1
     2    1   30 1
     3    1   31 1
     4    1   32 1
     5    2    7 ar
     6    2    3 ar
     7    3    4 ar
     8    3   33 1
     9    4    5 ar
    10    4   34 1
    11    5    6 ar
    12    5    8 1
    13    6    7 ar
    14    6   35 1
    15    7   36 1
    16    8    9 1
    17    8   25 1
    18    8   37 1
    19    9   10 1
    20    9   38 1
    21    9   39 1
    22   10   11 am
    23   10   40 1
    24   11   12 2
    25   11   13 am
    26   13   14 1
    27   13   41 1
    28   14   19 ar
    29   14   15 ar
    30   15   16 ar
    31   15   42 1
    32   16   17 ar
    33   16   43 1
    34   17   18 ar
    35   17   44 1
    36   18   19 ar
    37   18   21 1
    38   19   20 1
    39   20   45 1
    40   20   46 1
    41   20   47 1
    42   21   22 2
    43   21   23 am
    44   23   24 1
    45   23   48 1
    46   24   49 1
    47   24   50 1
    48   24   51 1
    49   25   29 1
    50   25   26 1
    51   25   60 1
    52   26   27 1
    53   26   52 1
    54   26   53 1
    55   27   28 1
    56   27   54 1
    57   27   55 1
    58   28   29 1
    59   28   56 1
    60   28   57 1
    61   29   58 1
    62   29   59 1
@<TRIPOS>MOLECULE
ZINC66402052
   52    53     0     0     0
SMALL
USER_CHARGES

@<TRIPOS>ATOM
      1 C1         -1.3870    0.1581    0.4576 C.3       1 <0>        -0.1714
      2 C2         -2.0114    0.3608    1.8397 C.3       1 <0>        -0.1133
      3 H1         -3.0237   -0.0433    1.8445 H         1 <0>         0.1207
      4 C3         -2.0562    1.8563    2.1663 C.3       1 <0>        -0.1295
      5 C4         -0.6250    2.3973    2.2330 C.3       1 <0>        -0.1096
      6 H2         -0.1515    2.2952    1.2566 H         1 <0>         0.0933
      7 C5          0.1678    1.6004    3.2712 C.3       1 <0>        -0.0111
      8 N1          0.1960    0.1836    2.8887 N.4       1 <0>        -0.3847
      9 C6         -1.1678   -0.3615    2.8924 C.3       1 <0>        -0.0049
     10 C7          1.0228   -0.5640    3.8455 C.3       1 <0>        -0.0196
     11 C8          2.4768   -0.1011    3.7339 C.3       1 <0>         0.1405
     12 H3          2.5473    0.9477    4.0225 H         1 <0>         0.1140
     13 C9          3.3534   -0.9453    4.6611 C.3       1 <0>        -0.1684
     14 N2          2.9347   -0.2589    2.3513 N.am      1 <0>        -0.7604
     15 C10         3.9763    0.4673    1.8993 C.2       1 <0>         0.7144
     16 O1          4.5358    1.2535    2.6391 O.2       1 <0>        -0.5467
     17 N3          4.3976    0.3220    0.6274 N.am      1 <0>        -0.6665
     18 C11         5.4105    1.1514    0.1253 C.2       1 <0>         0.0361
     19 C12         6.5718    0.6121   -0.3560 C.2       1 <0>         0.0109
     20 C13         7.5684    1.4641   -0.8528 C.2       1 <0>        -0.2853
     21 C14         7.3762    2.8030   -0.8527 C.2       1 <0>         0.2142
     22 N4          6.2229    3.3411   -0.3743 N.am      1 <0>        -0.5940
     23 H4          6.1035    4.3037   -0.3826 H         1 <0>         0.4318
     24 C15         5.2418    2.5529    0.1051 C.2       1 <0>         0.5297
     25 O2          4.2096    3.0501    0.5261 O.2       1 <0>        -0.5191
     26 C16         8.8545    0.8880   -1.3867 C.3       1 <0>         0.5294
     27 F1          9.6853    1.9260   -1.8218 F         1 <0>        -0.1738
     28 F2          9.4985    0.1682   -0.3746 F         1 <0>        -0.1701
     29 F3          8.5734    0.0348   -2.4592 F         1 <0>        -0.1710
     30 C17        -0.6550    3.8734    2.6344 C.3       1 <0>        -0.1508
     31 H5         -1.3540   -0.9066    0.2264 H         1 <0>         0.0730
     32 H6         -1.9875    0.6742   -0.2915 H         1 <0>         0.0858
     33 H7         -0.3748    0.5624    0.4534 H         1 <0>         0.0494
     34 H8         -2.6090    2.3829    1.3883 H         1 <0>         0.0950
     35 H9         -2.5472    2.0048    3.1280 H         1 <0>         0.0842
     36 H10         1.1871    1.9831    3.3214 H         1 <0>         0.1317
     37 H11        -0.3065    1.7034    4.2472 H         1 <0>         0.1320
     38 H12        -1.6136   -0.2167    3.8764 H         1 <0>         0.1325
     39 H13        -1.1347   -1.4265    2.6626 H         1 <0>         0.1312
     40 H14         0.6606   -0.3832    4.8576 H         1 <0>         0.1497
     41 H15         0.9626   -1.6293    3.6230 H         1 <0>         0.1391
     42 H16         4.3893   -0.6155    4.5815 H         1 <0>         0.0847
     43 H17         3.0127   -0.8278    5.6898 H         1 <0>         0.0803
     44 H18         3.2828   -1.9940    4.3725 H         1 <0>         0.0700
     45 H19         2.4884   -0.8861    1.7612 H         1 <0>         0.3947
     46 H20         4.0001   -0.3563    0.0592 H         1 <0>         0.4098
     47 H21         6.7195   -0.4578   -0.3531 H         1 <0>         0.1516
     48 H22         8.1486    3.4526   -1.2370 H         1 <0>         0.1899
     49 H23        -1.1273    3.9746    3.6116 H         1 <0>         0.0672
     50 H24         0.3638    4.2578    2.6817 H         1 <0>         0.0695
     51 H25        -1.2230    4.4392    1.8960 H         1 <0>         0.0771
     52 H26         0.5904    0.0936    1.9644 H         1 <0>         0.4168
@<TRIPOS>BOND
     1    1    2 1
     2    1   31 1
     3    1   32 1
     4    1   33 1
     5    2    3 1
     6    2    9 1
     7    2    4 1
     8    4    5 1
     9    4   34 1
    10    4   35 1
    11    5    6 1
    12    5    7 1
    13    5   30 1
    14    7    8 1
    15    7   36 1
    16    7   37 1
    17    8    9 1
    18    8   10 1
    19    8   52 1
    20    9   38 1
    21    9   39 1
    22   10   11 1
    23   10   40 1
    24   10   41 1
    25   11   12 1
    26   11   13 1
    27   11   14 1
    28   13   42 1
    29   13   43 1
    30   13   44 1
    31   14   15 am
    32   14   45 1
    33   15   16 2
    34   15   17 am
    35   17   18 1
    36   17   46 1
    37   18   24 1
    38   18   19 2
    39   19   20 1
    40   19   47 1
    41   20   21 2
    42   20   26 1
    43   21   22 1
    44   21   48 1
    45   22   23 1
    46   22   24 am
    47   24   25 2
    48   26   27 1
    49   26   28 1
    50   26   29 1
    51   30   49 1
    52   30   50 1
    53   30   51 1
@<TRIPOS>MOLECULE
ZINC67390503
   56    57     0     0     0
SMALL
USER_CHARGES

@<TRIPOS>ATOM
      1 C1         -0.0184    1.5028    0.0103 C.3       1 <0>        -0.1139
      2 C2          0.0021   -0.0041    0.0020 C.2       1 <0>        -0.0070
      3 C3          0.0067   -0.7285   -1.1658 C.2       1 <0>        -0.1840
      4 C4          0.0259   -2.0828   -1.1013 C.2       1 <0>        -0.1987
      5 S1          0.0382   -2.4164    0.5452 S.3       1 <0>         0.1844
      6 C5          0.0233   -0.7477    1.1721 C.2       1 <0>        -0.2751
      7 C6          0.0302   -0.2828    2.5623 C.2       1 <0>         0.6149
      8 O1          0.0163    0.9096    2.8053 O.2       1 <0>        -0.5069
      9 N1          0.0519   -1.1760    3.5714 N.am      1 <0>        -0.5309
     10 N2          0.0584   -0.7317    4.9001 N.am      1 <0>        -0.5235
     11 C7          0.0802   -1.6248    5.9092 C.2       1 <0>         0.7156
     12 O2          0.0859   -1.2392    7.0623 O.2       1 <0>        -0.5622
     13 N3          0.0956   -2.9454    5.6401 N.am      1 <0>        -0.7486
     14 C8          0.1192   -3.9162    6.7370 C.3       1 <0>         0.1357
     15 C9          0.1330   -5.3343    6.1627 C.3       1 <0>        -0.1315
     16 C10         0.1576   -6.3482    7.3083 C.3       1 <0>        -0.1466
     17 C11         0.1715   -7.7662    6.7340 C.3       1 <0>        -0.0096
     18 N4          0.1951   -8.7397    7.8339 N.4       1 <0>        -0.3841
     19 C12         1.4514   -8.6018    8.5805 C.3       1 <0>        -0.0093
     20 C13         1.4464   -9.5574    9.7756 C.3       1 <0>        -0.1130
     21 H1          2.3807   -9.4547   10.3276 H         1 <0>         0.1191
     22 C14         1.3060  -10.9964    9.2710 C.3       1 <0>        -0.1299
     23 C15         0.0303  -11.1104    8.4315 C.3       1 <0>        -0.1128
     24 H2         -0.8373  -10.9029    9.0579 H         1 <0>         0.0951
     25 C16         0.0877  -10.0973    7.2862 C.3       1 <0>        -0.0051
     26 C17        -0.0797  -12.5248    7.8587 C.3       1 <0>        -0.1517
     27 C18         0.2705   -9.2202   10.6945 C.3       1 <0>        -0.1709
     28 H3          1.0042    1.8801    0.0026 H         1 <0>         0.0819
     29 H4         -0.5455    1.8639   -0.8728 H         1 <0>         0.0723
     30 H5         -0.5286    1.8543    0.9071 H         1 <0>         0.0905
     31 H6         -0.0051   -0.2261   -2.1218 H         1 <0>         0.1458
     32 H7          0.0316   -2.7861   -1.9208 H         1 <0>         0.1942
     33 H8          0.0630   -2.1264    3.3777 H         1 <0>         0.4154
     34 H9          0.0474    0.2187    5.0937 H         1 <0>         0.4489
     35 H10         0.0910   -3.2530    4.7202 H         1 <0>         0.3923
     36 H11         1.0129   -3.7601    7.3412 H         1 <0>         0.0750
     37 H12        -0.7668   -3.7843    7.3580 H         1 <0>         0.0752
     38 H13        -0.7607   -5.4903    5.5586 H         1 <0>         0.0837
     39 H14         1.0190   -5.4661    5.5417 H         1 <0>         0.0834
     40 H15         1.0514   -6.1921    7.9125 H         1 <0>         0.0929
     41 H16        -0.7284   -6.2163    7.9293 H         1 <0>         0.0926
     42 H17        -0.7223   -7.9223    6.1299 H         1 <0>         0.1322
     43 H18         1.0575   -7.8981    6.1130 H         1 <0>         0.1311
     44 H19         2.2901   -8.8422    7.9271 H         1 <0>         0.1297
     45 H20         1.5514   -7.5763    8.9362 H         1 <0>         0.1326
     46 H21         2.1699  -11.2537    8.6581 H         1 <0>         0.0830
     47 H22         1.2451  -11.6763   10.1208 H         1 <0>         0.0948
     48 H23        -0.8190  -10.1759    6.6864 H         1 <0>         0.1298
     49 H24         0.9555  -10.3058    6.6604 H         1 <0>         0.1291
     50 H25        -0.1169  -13.2457    8.6754 H         1 <0>         0.0777
     51 H26        -0.9878  -12.6053    7.2613 H         1 <0>         0.0683
     52 H27         0.7874  -12.7311    7.2312 H         1 <0>         0.0672
     53 H28        -0.6635   -9.3245   10.1424 H         1 <0>         0.0509
     54 H29         0.2675   -9.9012   11.5456 H         1 <0>         0.0848
     55 H30         0.3697   -8.1946   11.0501 H         1 <0>         0.0737
     56 H31        -0.5824   -8.5653    8.4528 H         1 <0>         0.4213
@<TRIPOS>BOND
     1    1    2 1
     2    1   28 1
     3    1   29 1
     4    1   30 1
     5    2    6 2
     6    2    3 1
     7    3    4 2
     8    3   31 1
     9    4    5 1
    10    4   32 1
    11    5    6 1
    12    6    7 1
    13    7    8 2
    14    7    9 am
    15    9   10 1
    16    9   33 1
    17   10   11 am
    18   10   34 1
    19   11   12 2
    20   11   13 am
    21   13   14 1
    22   13   35 1
    23   14   15 1
    24   14   36 1
    25   14   37 1
    26   15   16 1
    27   15   38 1
    28   15   39 1
    29   16   17 1
    30   16   40 1
    31   16   41 1
    32   17   18 1
    33   17   42 1
    34   17   43 1
    35   18   25 1
    36   18   19 1
    37   18   56 1
    38   19   20 1
    39   19   44 1
    40   19   45 1
    41   20   21 1
    42   20   22 1
    43   20   27 1
    44   22   23 1
    45   22   46 1
    46   22   47 1
    47   23   24 1
    48   23   25 1
    49   23   26 1
    50   25   48 1
    51   25   49 1
    52   26   50 1
    53   26   51 1
    54   26   52 1
    55   27   53 1
    56   27   54 1
    57   27   55 1
@<TRIPOS>MOLECULE
ZINC04575588
   56    59     0     0     0
SMALL
USER_CHARGES
N-[(1-ethylpyrrolidin-2-yl)methyl]-4-hydroxy-2-oxo-3-phenyl-1H-quinazoline-4-carboxamide
@<TRIPOS>ATOM
      1 C1         -5.6057    3.4168    2.9265 C.3       1 <0>        -0.1862
      2 C2         -4.1971    2.8354    3.0632 C.3       1 <0>        -0.0159
      3 C3         -5.0302    0.5551    2.9824 C.3       1 <0>        -0.0100
      4 C4         -4.3034   -0.8021    2.8108 C.3       1 <0>        -0.1407
      5 C5         -2.8214   -0.3923    3.0171 C.3       1 <0>        -0.1423
      6 C6         -2.7558    1.0096    2.3752 C.3       1 <0>         0.0115
      7 H1         -2.3759    0.9335    1.3564 H         1 <0>         0.1440
      8 C7         -1.8482    1.9225    3.2021 C.3       1 <0>         0.1034
      9 N1         -0.4728    1.4206    3.1502 N.am      1 <0>        -0.7185
     10 C8          0.4883    2.0109    3.8879 C.2       1 <0>         0.5016
     11 O1          0.2145    2.9576    4.5949 O.2       1 <0>        -0.5004
     12 C9          1.9031    1.4946    3.8345 C.3       1 <0>         0.3981
     13 C10         2.4285    1.7187    2.4353 C.ar      1 <0>        -0.1850
     14 C11         2.4734    2.9771    1.8812 C.ar      1 <0>        -0.0603
     15 C12         2.9610    3.1443    0.5960 C.ar      1 <0>        -0.1363
     16 C13         3.4012    2.0495   -0.1253 C.ar      1 <0>        -0.0599
     17 C14         3.3575    0.7852    0.4290 C.ar      1 <0>        -0.1516
     18 C15         2.8690    0.6121    1.7174 C.ar      1 <0>         0.1857
     19 N2          2.8171   -0.6566    2.2952 N.am      1 <0>        -0.6594
     20 C16         2.3555   -0.8750    3.5332 C.2       1 <0>         0.7096
     21 O2          2.3472   -2.0151    3.9559 O.2       1 <0>        -0.5377
     22 N3          1.8996    0.1079    4.3307 N.am      1 <0>        -0.5437
     23 C17         1.4295   -0.1835    5.6161 C.ar      1 <0>         0.1400
     24 C18         2.1512    0.2246    6.7301 C.ar      1 <0>        -0.0884
     25 C19         1.6817   -0.0599    7.9975 C.ar      1 <0>        -0.1092
     26 C20         0.5000   -0.7599    8.1576 C.ar      1 <0>        -0.1050
     27 C21        -0.2184   -1.1722    7.0503 C.ar      1 <0>        -0.1167
     28 C22         0.2430   -0.8862    5.7803 C.ar      1 <0>        -0.1021
     29 O3          2.6893    2.2811    4.7318 O.3       1 <0>        -0.5324
     30 H2         -5.8363    3.5662    1.8717 H         1 <0>         0.0806
     31 H3         -5.6566    4.3723    3.4485 H         1 <0>         0.1074
     32 H4         -6.3277    2.7260    3.3620 H         1 <0>         0.0804
     33 H5         -3.4751    3.5262    2.6278 H         1 <0>         0.1335
     34 H6         -3.9665    2.6860    4.1180 H         1 <0>         0.1324
     35 H7         -5.1696    0.7798    4.0398 H         1 <0>         0.1346
     36 H8         -5.9905    0.5391    2.4671 H         1 <0>         0.1374
     37 H9         -4.4613   -1.2059    1.8107 H         1 <0>         0.1009
     38 H10        -4.6210   -1.5148    3.5720 H         1 <0>         0.1198
     39 H11        -2.1549   -1.0838    2.5016 H         1 <0>         0.1134
     40 H12        -2.5767   -0.3421    4.0781 H         1 <0>         0.1038
     41 H13        -1.8817    2.9332    2.7954 H         1 <0>         0.0928
     42 H14        -2.1914    1.9355    4.2366 H         1 <0>         0.0958
     43 H15        -0.2539    0.6634    2.5848 H         1 <0>         0.4060
     44 H16         2.1291    3.8309    2.4459 H         1 <0>         0.1330
     45 H17         2.9978    4.1303    0.1568 H         1 <0>         0.1380
     46 H18         3.7814    2.1839   -1.1272 H         1 <0>         0.1398
     47 H19         3.7020   -0.0668   -0.1382 H         1 <0>         0.1404
     48 H20         3.1297   -1.4147    1.7770 H         1 <0>         0.4324
     49 H21         3.0765    0.7674    6.6056 H         1 <0>         0.1350
     50 H22         2.2405    0.2607    8.8643 H         1 <0>         0.1329
     51 H23         0.1371   -0.9847    9.1497 H         1 <0>         0.1300
     52 H24        -1.1410   -1.7187    7.1787 H         1 <0>         0.1279
     53 H25        -0.3185   -1.2085    4.9159 H         1 <0>         0.1155
     54 H26         2.7054    3.2240    4.5176 H         1 <0>         0.4009
     55 N4         -4.1324    1.5358    2.3452 N.4       1 <0>        -0.3897
     56 H27        -4.4213    1.6768    1.3701 H         1 <0>         0.4329
@<TRIPOS>BOND
     1    1    2 1
     2    1   30 1
     3    1   31 1
     4    1   32 1
     5    2   33 1
     6    2   34 1
     7    2   55 1
     8    3    4 1
     9    3   35 1
    10    3   36 1
    11    3   55 1
    12    4    5 1
    13    4   37 1
    14    4   38 1
    15    5    6 1
    16    5   39 1
    17    5   40 1
    18    6    7 1
    19    6    8 1
    20    6   55 1
    21    8    9 1
    22    8   41 1
    23    8   42 1
    24    9   10 am
    25    9   43 1
    26   10   11 2
    27   10   12 1
    28   12   22 1
    29   12   13 1
    30   12   29 1
    31   13   18 ar
    32   13   14 ar
    33   14   15 ar
    34   14   44 1
    35   15   16 ar
    36   15   45 1
    37   16   17 ar
    38   16   46 1
    39   17   18 ar
    40   17   47 1
    41   18   19 1
    42   19   20 am
    43   19   48 1
    44   20   21 2
    45   20   22 am
    46   22   23 1
    47   23   28 ar
    48   23   24 ar
    49   24   25 ar
    50   24   49 1
    51   25   26 ar
    52   25   50 1
    53   26   27 ar
    54   26   51 1
    55   27   28 ar
    56   27   52 1
    57   28   53 1
    58   29   54 1
    59   55   56 1
@<TRIPOS>MOLECULE
ZINC39969366
   46    49     0     0     0
SMALL
USER_CHARGES

@<TRIPOS>ATOM
      1 C1         -3.2969    0.5525    0.7366 C.2       1 <0>        -0.1052
      2 C2         -2.3742    0.2646   -0.1476 C.2       1 <0>        -0.2179
      3 C3         -1.4168   -0.8715    0.1049 C.3       1 <0>         0.0145
      4 N1         -1.4777   -1.8211   -1.0142 N.4       1 <0>        -0.3881
      5 C4         -2.7879   -2.5119   -1.0242 C.3       1 <0>         0.2575
      6 H1         -3.2330   -2.4999   -0.0293 H         1 <0>         0.1401
      7 N2         -2.4635   -3.9040   -1.4321 N.3       1 <0>        -0.4550
      8 N3         -1.1831   -4.1591   -0.7536 N.3       1 <0>        -0.4536
      9 C5         -0.4544   -2.8733   -0.8428 C.3       1 <0>         0.1530
     10 H2          0.2181   -2.8837   -1.7005 H         1 <0>         0.1791
     11 S1          0.4854   -2.5842    0.6816 S.3       1 <0>        -0.0618
     12 C6          1.9512   -3.6372    0.4999 C.3       1 <0>        -0.0736
     13 C7          2.8878   -3.3983    1.6561 C.2       1 <0>         0.3984
     14 N4          4.0531   -4.0956    1.6961 N.am      1 <0>        -0.6477
     15 H3          4.2599   -4.7270    0.9894 H         1 <0>         0.4219
     16 C8          4.9284   -3.9169    2.7129 C.2       1 <0>         0.5532
     17 O1          5.9763   -4.5343    2.7610 O.2       1 <0>        -0.4908
     18 C9          4.5643   -2.9476    3.7570 C.ar      1 <0>        -0.1889
     19 C10         5.3947   -2.6904    4.8459 C.ar      1 <0>        -0.0403
     20 C11         5.0038   -1.7722    5.7956 C.ar      1 <0>        -0.1233
     21 C12         3.7923   -1.1039    5.6754 C.ar      1 <0>        -0.0698
     22 C13         2.9573   -1.3439    4.6075 C.ar      1 <0>        -0.1030
     23 C14         3.3315   -2.2698    3.6315 C.ar      1 <0>         0.1422
     24 N5          2.5421   -2.5328    2.5601 N.2       1 <0>        -0.5042
     25 C15        -3.7153   -1.8693   -2.0232 C.2       1 <0>        -0.0879
     26 C16        -4.6962   -2.4928   -2.7003 C.2       1 <0>        -0.1157
     27 C17        -5.3101   -1.5191   -3.5213 C.2       1 <0>        -0.2114
     28 C18        -4.6676   -0.3589   -3.2967 C.2       1 <0>         0.0085
     29 O2         -3.7064   -0.5757   -2.3841 O.3       1 <0>        -0.1746
     30 H4         -3.9830    1.3667    0.5556 H         1 <0>         0.1246
     31 H5         -3.3742   -0.0271    1.6446 H         1 <0>         0.1086
     32 H6         -2.2997    0.8414   -1.0577 H         1 <0>         0.1408
     33 H7         -0.4036   -0.4797    0.1944 H         1 <0>         0.1624
     34 H8         -1.6925   -1.3804    1.0286 H         1 <0>         0.1356
     35 H9         -3.1739   -4.5478   -1.1177 H         1 <0>         0.3929
     36 H10        -1.3304   -4.4253    0.2085 H         1 <0>         0.3569
     37 H11         1.6475   -4.6840    0.4887 H         1 <0>         0.1367
     38 H12         2.4583   -3.3960   -0.4343 H         1 <0>         0.1340
     39 H13         6.3378   -3.2074    4.9448 H         1 <0>         0.1436
     40 H14         5.6448   -1.5706    6.6411 H         1 <0>         0.1408
     41 H15         3.5015   -0.3872    6.4292 H         1 <0>         0.1405
     42 H16         2.0176   -0.8180    4.5247 H         1 <0>         0.1404
     43 H17        -4.9632   -3.5370   -2.6307 H         1 <0>         0.1603
     44 H18        -6.1361   -1.6767   -4.1990 H         1 <0>         0.1643
     45 H19        -4.8897    0.5874   -3.7674 H         1 <0>         0.2194
     46 H20        -1.3338   -1.3372   -1.8879 H         1 <0>         0.4426
@<TRIPOS>BOND
     1    1    2 2
     2    1   30 1
     3    1   31 1
     4    2    3 1
     5    2   32 1
     6    3    4 1
     7    3   33 1
     8    3   34 1
     9    4    9 1
    10    4    5 1
    11    4   46 1
    12    5    6 1
    13    5    7 1
    14    5   25 1
    15    7    8 1
    16    7   35 1
    17    8    9 1
    18    8   36 1
    19    9   10 1
    20    9   11 1
    21   11   12 1
    22   12   13 1
    23   12   37 1
    24   12   38 1
    25   13   24 2
    26   13   14 1
    27   14   15 1
    28   14   16 am
    29   16   17 2
    30   16   18 1
    31   18   23 ar
    32   18   19 ar
    33   19   20 ar
    34   19   39 1
    35   20   21 ar
    36   20   40 1
    37   21   22 ar
    38   21   41 1
    39   22   23 ar
    40   22   42 1
    41   23   24 1
    42   25   29 1
    43   25   26 2
    44   26   27 1
    45   26   43 1
    46   27   28 2
    47   27   44 1
    48   28   29 1
    49   28   45 1
@<TRIPOS>MOLECULE
ZINC52712521
   57    58     0     0     0
SMALL
USER_CHARGES

@<TRIPOS>ATOM
      1 C1         -0.0187    1.5258    0.0104 C.3       1 <0>        -0.1544
      2 C2          0.0021   -0.0041    0.0020 C.3       1 <0>         0.0521
      3 O1          0.6709   -0.4649   -1.1737 O.3       1 <0>        -0.3131
      4 C3          0.7768   -1.8106   -1.3362 C.ar      1 <0>         0.1479
      5 C4          0.2445   -2.6669   -0.3895 C.ar      1 <0>        -0.1725
      6 C5          0.3463   -4.0415   -0.5435 C.ar      1 <0>        -0.0822
      7 C6          0.9804   -4.5728   -1.6447 C.ar      1 <0>        -0.1010
      8 C7          1.5219   -3.7215   -2.6083 C.ar      1 <0>        -0.1044
      9 C8          1.4168   -2.3299   -2.4597 C.ar      1 <0>         0.0443
     10 O2          2.0150   -1.7661   -3.5292 O.3       1 <0>        -0.1873
     11 C9          2.4946   -2.7069   -4.3609 C.2       1 <0>        -0.0553
     12 C10         2.2435   -3.9282   -3.8696 C.2       1 <0>        -0.1222
     13 C11         3.2208   -2.4285   -5.6518 C.3       1 <0>         0.1277
     14 H1          3.1847   -3.3135   -6.2871 H         1 <0>         0.1709
     15 C12         4.6788   -2.0757   -5.3508 C.3       1 <0>        -0.1878
     16 N1          2.5773   -1.3031   -6.3427 N.4       1 <0>        -0.4984
     17 C13         3.2087   -1.1084   -7.6547 C.3       1 <0>         0.0010
     18 H2          4.2836   -0.9818   -7.5254 H         1 <0>         0.1760
     19 C14         2.9416   -2.3305   -8.5357 C.3       1 <0>        -0.1849
     20 C15         2.6336    0.1198   -8.3117 C.2       1 <0>         0.5151
     21 O3          1.7819    0.7688   -7.7432 O.2       1 <0>        -0.4482
     22 N2          3.0661    0.4968   -9.5313 N.am      1 <0>        -0.6758
     23 C16         2.5517    1.5953  -10.1188 C.2       1 <0>         0.6928
     24 O4          1.6979    2.2459   -9.5489 O.2       1 <0>        -0.5106
     25 N3          2.9842    1.9723  -11.3384 N.am      1 <0>        -0.7199
     26 C17         2.4251    3.1663  -11.9770 C.3       1 <0>         0.1829
     27 C18         2.6922    4.3884  -11.0961 C.3       1 <0>        -0.1685
     28 C19         3.0827    3.3691  -13.3435 C.3       1 <0>        -0.1582
     29 C20         0.9163    2.9885  -12.1586 C.3       1 <0>        -0.1683
     30 H3          1.0039    1.9031    0.0027 H         1 <0>         0.0678
     31 H4         -0.5459    1.8868   -0.8726 H         1 <0>         0.0678
     32 H5         -0.5289    1.8773    0.9072 H         1 <0>         0.0858
     33 H6          0.5293   -0.3651    0.8851 H         1 <0>         0.0690
     34 H7         -1.0205   -0.3814    0.0098 H         1 <0>         0.0689
     35 H8         -0.2549   -2.2613    0.4780 H         1 <0>         0.1487
     36 H9         -0.0733   -4.6985    0.2040 H         1 <0>         0.1434
     37 H10         1.0584   -5.6436   -1.7616 H         1 <0>         0.1391
     38 H11         2.5087   -4.8745   -4.3176 H         1 <0>         0.1734
     39 H12         5.1563   -2.9107   -4.8381 H         1 <0>         0.1179
     40 H13         5.2040   -1.8744   -6.2845 H         1 <0>         0.0927
     41 H14         4.7149   -1.1908   -4.7155 H         1 <0>         0.0913
     42 H15         1.5960   -1.5021   -6.4679 H         1 <0>         0.4385
     43 H16         1.8667   -2.4572   -8.6650 H         1 <0>         0.0956
     44 H17         3.4101   -2.1860   -9.5092 H         1 <0>         0.1154
     45 H18         3.3575   -3.2189   -8.0605 H         1 <0>         0.1029
     46 H19         3.7475   -0.0224   -9.9861 H         1 <0>         0.4165
     47 H20         3.6656    1.4530  -11.7932 H         1 <0>         0.4007
     48 H21         3.7671    4.5151  -10.9668 H         1 <0>         0.0566
     49 H22         2.2762    5.2768  -11.5713 H         1 <0>         0.0721
     50 H23         2.2237    4.2439  -10.1226 H         1 <0>         0.0775
     51 H24         2.8924    2.4985  -13.9711 H         1 <0>         0.0655
     52 H25         2.6668    4.2575  -13.8187 H         1 <0>         0.0828
     53 H26         4.1576    3.4958  -13.2142 H         1 <0>         0.0655
     54 H27         0.4478    2.8440  -11.1851 H         1 <0>         0.0774
     55 H28         0.5003    3.8769  -12.6337 H         1 <0>         0.0721
     56 H29         0.7260    2.1179  -12.7862 H         1 <0>         0.0565
     57 H30         2.6828   -0.4650   -5.7910 H         1 <0>         0.4410
@<TRIPOS>BOND
     1    1    2 1
     2    1   30 1
     3    1   31 1
     4    1   32 1
     5    2    3 1
     6    2   33 1
     7    2   34 1
     8    3    4 1
     9    4    9 ar
    10    4    5 ar
    11    5    6 ar
    12    5   35 1
    13    6    7 ar
    14    6   36 1
    15    7    8 ar
    16    7   37 1
    17    8   12 1
    18    8    9 ar
    19    9   10 1
    20   10   11 1
    21   11   12 2
    22   11   13 1
    23   12   38 1
    24   13   14 1
    25   13   15 1
    26   13   16 1
    27   15   39 1
    28   15   40 1
    29   15   41 1
    30   16   17 1
    31   16   42 1
    32   16   57 1
    33   17   18 1
    34   17   19 1
    35   17   20 1
    36   19   43 1
    37   19   44 1
    38   19   45 1
    39   20   21 2
    40   20   22 am
    41   22   23 am
    42   22   46 1
    43   23   24 2
    44   23   25 am
    45   25   26 1
    46   25   47 1
    47   26   27 1
    48   26   28 1
    49   26   29 1
    50   27   48 1
    51   27   49 1
    52   27   50 1
    53   28   51 1
    54   28   52 1
    55   28   53 1
    56   29   54 1
    57   29   55 1
    58   29   56 1
@<TRIPOS>MOLECULE
ZINC39796079
   59    62     0     0     0
SMALL
USER_CHARGES

@<TRIPOS>ATOM
      1 C1         -0.5410    1.8766    0.1636 C.3       1 <0>        -0.1625
      2 C2         -0.3476    0.3632    0.2780 C.3       1 <0>        -0.0862
      3 H1          0.3342    0.0241   -0.5020 H         1 <0>         0.1064
      4 C3          0.2305    0.0314    1.6296 C.2       1 <0>         0.5331
      5 O1         -0.4922   -0.3721    2.5154 O.2       1 <0>        -0.4336
      6 N1          1.5508    0.1832    1.8535 N.am      1 <0>        -0.6881
      7 C4          2.0678   -0.1136    3.0623 C.2       1 <0>         0.6938
      8 O2          1.3433   -0.5181    3.9504 O.2       1 <0>        -0.5151
      9 N2          3.3881    0.0382    3.2862 N.am      1 <0>        -0.7279
     10 C5          3.9500   -0.2844    4.6002 C.3       1 <0>         0.1840
     11 C6          3.6880   -1.7576    4.9192 C.3       1 <0>        -0.1674
     12 C7          5.4579   -0.0257    4.5874 C.3       1 <0>        -0.1560
     13 C8          3.2910    0.5933    5.6661 C.3       1 <0>        -0.1681
     14 S1         -1.9486   -0.4673    0.0846 S.3       1 <0>        -0.1647
     15 C9         -2.4315   -0.0971   -1.6243 C.3       1 <0>         0.3727
     16 H2         -3.3999   -0.5430   -1.8510 H         1 <0>         0.1388
     17 N3         -2.4704    1.3580   -1.8447 N.pl3     1 <0>        -0.5817
     18 N4         -1.5260    1.6349   -2.8400 N.2       1 <0>        -0.1744
     19 C10        -0.9288    0.5450   -3.2440 C.2       1 <0>         0.2626
     20 N5         -1.4084   -0.5819   -2.5651 N.pl3     1 <0>        -0.6065
     21 C11        -0.9778   -1.9697   -2.7519 C.3       1 <0>         0.0764
     22 C12        -1.7142   -3.0508   -1.9583 C.3       1 <0>        -0.1587
     23 C13        -0.2858   -2.6593   -1.5745 C.3       1 <0>        -0.1895
     24 C14         0.0651    0.5078   -4.2340 C.2       1 <0>         0.1342
     25 C15         0.6559    1.5959   -4.8773 C.ar      1 <0>        -0.1408
     26 C16         0.4692    2.9896   -4.7589 C.ar      1 <0>        -0.0119
     27 C17         1.2006    3.8351   -5.5297 C.ar      1 <0>        -0.1483
     28 C18         2.1419    3.3603   -6.4456 C.ar      1 <0>         0.0477
     29 C19         2.3729    2.0346   -6.6115 C.ar      1 <0>        -0.2051
     30 C20         1.6468    1.0901   -5.8412 C.ar      1 <0>         0.3150
     31 N6          1.6852   -0.2278   -5.8144 N.pl3     1 <0>        -0.5984
     32 C21         0.7247   -0.7200   -4.8221 C.3       1 <0>         0.0776
     33 H3          0.4210    2.3757    0.2798 H         1 <0>         0.0708
     34 H4         -0.9591    2.1166   -0.8140 H         1 <0>         0.0870
     35 H5         -1.2228    2.2157    0.9436 H         1 <0>         0.0817
     36 H6          2.1290    0.5060    1.1447 H         1 <0>         0.4059
     37 H7          3.9663    0.3611    2.5775 H         1 <0>         0.3960
     38 H8          4.1575   -2.3829    4.1598 H         1 <0>         0.0541
     39 H9          4.1061   -1.9976    5.8968 H         1 <0>         0.0692
     40 H10         2.6137   -1.9419    4.9283 H         1 <0>         0.0792
     41 H11         5.6446    1.0239    4.3601 H         1 <0>         0.0635
     42 H12         5.8760   -0.2657    5.5650 H         1 <0>         0.0805
     43 H13         5.9274   -0.6510    3.8280 H         1 <0>         0.0629
     44 H14         2.2167    0.4090    5.6752 H         1 <0>         0.0791
     45 H15         3.7091    0.3533    6.6437 H         1 <0>         0.0693
     46 H16         3.4777    1.6429    5.4389 H         1 <0>         0.0548
     47 H17        -3.0391    1.9989   -1.3899 H         1 <0>         0.4694
     48 H18        -0.6377   -2.2254   -3.7555 H         1 <0>         0.1339
     49 H19        -2.5190   -2.7295   -1.2971 H         1 <0>         0.1101
     50 H20        -1.8589   -4.0180   -2.4397 H         1 <0>         0.1164
     51 H21         0.5093   -3.3689   -1.8034 H         1 <0>         0.1099
     52 H22        -0.1509   -2.0805   -0.6608 H         1 <0>         0.1093
     53 H23        -0.2528    3.3822   -4.0582 H         1 <0>         0.1609
     54 H24         1.0506    4.9002   -5.4324 H         1 <0>         0.1560
     55 H25         2.7012    4.0688   -7.0385 H         1 <0>         0.1608
     56 H26         3.1075    1.6985   -7.3284 H         1 <0>         0.1607
     57 H27         1.2411   -1.2788   -4.0416 H         1 <0>         0.1737
     58 H28        -0.0208   -1.3512   -5.3058 H         1 <0>         0.1725
     59 H29         2.2614   -0.7838   -6.3619 H         1 <0>         0.4551
@<TRIPOS>BOND
     1    1    2 1
     2    1   33 1
     3    1   34 1
     4    1   35 1
     5    2    3 1
     6    2    4 1
     7    2   14 1
     8    4    5 2
     9    4    6 am
    10    6    7 am
    11    6   36 1
    12    7    8 2
    13    7    9 am
    14    9   10 1
    15    9   37 1
    16   10   11 1
    17   10   12 1
    18   10   13 1
    19   11   38 1
    20   11   39 1
    21   11   40 1
    22   12   41 1
    23   12   42 1
    24   12   43 1
    25   13   44 1
    26   13   45 1
    27   13   46 1
    28   14   15 1
    29   15   16 1
    30   15   20 1
    31   15   17 1
    32   17   18 1
    33   17   47 1
    34   18   19 2
    35   19   20 1
    36   19   24 1
    37   20   21 1
    38   21   23 1
    39   21   22 1
    40   21   48 1
    41   22   23 1
    42   22   49 1
    43   22   50 1
    44   23   51 1
    45   23   52 1
    46   24   32 1
    47   24   25 2
    48   25   30 ar
    49   25   26 ar
    50   26   27 ar
    51   26   53 1
    52   27   28 ar
    53   27   54 1
    54   28   29 ar
    55   28   55 1
    56   29   30 ar
    57   29   56 1
    58   30   31 2
    59   31   32 1
    60   31   59 1
    61   32   57 1
    62   32   58 1
@<TRIPOS>MOLECULE
ZINC64114106
   49    50     0     0     0
SMALL
USER_CHARGES

@<TRIPOS>ATOM
      1 C1         -0.8296    1.5457   -0.5810 C.3       1 <0>        -0.1325
      2 C2         -0.6696    0.0521   -0.4599 C.ar      1 <0>        -0.0461
      3 C3         -0.8517   -0.7545   -1.5677 C.ar      1 <0>        -0.1051
      4 C4         -0.7050   -2.1246   -1.4566 C.ar      1 <0>        -0.0869
      5 C5         -0.3758   -2.6879   -0.2380 C.ar      1 <0>        -0.1555
      6 C6         -0.1928   -1.8812    0.8696 C.ar      1 <0>        -0.1142
      7 C7         -0.3353   -0.5108    0.7575 C.ar      1 <0>        -0.1042
      8 C8         -0.2168   -4.1816   -0.1167 C.3       1 <0>         0.0710
      9 C9          1.2702   -4.5405   -0.1490 C.3       1 <0>         0.1033
     10 N1          1.8305   -4.1831   -1.4545 N.pl3     1 <0>        -0.7331
     11 C10         3.1634   -4.4806   -1.7475 C.ar      1 <0>         0.1966
     12 C11         3.9575   -5.1205   -0.8041 C.ar      1 <0>        -0.0865
     13 C12         5.2747   -5.4136   -1.0972 C.ar      1 <0>        -0.0163
     14 C13         5.8036   -5.0707   -2.3283 C.ar      1 <0>        -0.0021
     15 C14         5.0162   -4.4334   -3.2693 C.ar      1 <0>        -0.6271
     16 C15         3.6963   -4.1424   -2.9848 C.ar      1 <0>        -0.0355
     17 S1          5.6955   -3.9978   -4.8357 S.o2      1 <0>         2.7037
     18 O1          4.9103   -2.9235   -5.3343 O.2       1 <0>        -0.9481
     19 O2          7.1010   -3.8939   -4.6542 O.2       1 <0>        -0.9408
     20 N2          5.4431   -5.2803   -5.8525 N.pl3     1 <0>        -1.2452
     21 N3          6.1216   -6.0949   -0.0927 N.pl3     1 <0>         0.0273
     22 O3          5.6600   -6.3945    0.9838 O.2       1 <0>        -0.1521
     23 O4          7.2749   -6.3518   -0.3486 O.3       1 <0>        -0.1293
     24 N4         -0.8025   -4.6350    1.1519 N.4       1 <0>        -0.3816
     25 C16        -2.2192   -4.2498    1.2025 C.3       1 <0>        -0.0490
     26 C17        -0.6886   -6.0963    1.2493 C.3       1 <0>        -0.0557
     27 H1          0.1288    1.9937   -0.8433 H         1 <0>         0.0845
     28 H2         -1.5607    1.7711   -1.3574 H         1 <0>         0.0776
     29 H3         -1.1727    1.9527    0.3702 H         1 <0>         0.0765
     30 H4         -1.1089   -0.3144   -2.5198 H         1 <0>         0.1390
     31 H5         -0.8479   -2.7548   -2.3219 H         1 <0>         0.1326
     32 H6          0.0641   -2.3213    1.8217 H         1 <0>         0.1196
     33 H7         -0.1887    0.1199    1.6220 H         1 <0>         0.1370
     34 H8         -0.7265   -4.6699   -0.9473 H         1 <0>         0.1508
     35 H9          1.7936   -3.9914    0.6337 H         1 <0>         0.0874
     36 H10         1.3892   -5.6112    0.0167 H         1 <0>         0.0910
     37 H11         1.2759   -3.7398   -2.1155 H         1 <0>         0.4147
     38 H12         3.5452   -5.3882    0.1575 H         1 <0>         0.1568
     39 H13         6.8341   -5.3011   -2.5550 H         1 <0>         0.1762
     40 H14         3.0805   -3.6486   -3.7219 H         1 <0>         0.1635
     41 H15         4.9906   -6.0746   -5.5282 H         1 <0>         0.4175
     42 H16         5.7478   -5.2371   -6.7724 H         1 <0>         0.4285
     43 H17        -2.7513   -4.7120    0.3710 H         1 <0>         0.1248
     44 H18        -2.6538   -4.5862    2.1438 H         1 <0>         0.1300
     45 H19        -2.3038   -3.1655    1.1302 H         1 <0>         0.1264
     46 H20         0.3621   -6.3740    1.3338 H         1 <0>         0.1258
     47 H21        -1.2285   -6.4450    2.1296 H         1 <0>         0.1332
     48 H22        -1.1147   -6.5542    0.3567 H         1 <0>         0.1264
     49 H23        -0.3100   -4.2072    1.9217 H         1 <0>         0.4255
@<TRIPOS>BOND
     1    1    2 1
     2    1   27 1
     3    1   28 1
     4    1   29 1
     5    2    7 ar
     6    2    3 ar
     7    3    4 ar
     8    3   30 1
     9    4    5 ar
    10    4   31 1
    11    5    6 ar
    12    5    8 1
    13    6    7 ar
    14    6   32 1
    15    7   33 1
    16    8    9 1
    17    8   24 1
    18    8   34 1
    19    9   10 1
    20    9   35 1
    21    9   36 1
    22   10   11 1
    23   10   37 1
    24   11   16 ar
    25   11   12 ar
    26   12   13 ar
    27   12   38 1
    28   13   14 ar
    29   13   21 1
    30   14   15 ar
    31   14   39 1
    32   15   16 ar
    33   15   17 1
    34   16   40 1
    35   17   18 2
    36   17   19 2
    37   17   20 1
    38   20   41 1
    39   20   42 1
    40   21   22 2
    41   21   23 1
    42   24   25 1
    43   24   26 1
    44   24   49 1
    45   25   43 1
    46   25   44 1
    47   25   45 1
    48   26   46 1
    49   26   47 1
    50   26   48 1
@<TRIPOS>MOLECULE
ZINC08157054
   53    54     0     0     0
SMALL
USER_CHARGES
(1-allophanoyl-2-methyl-propyl) 1-[5-(trifluoromethyl)-2-pyridyl]piperidine-4-carboxylate
@<TRIPOS>ATOM
      1 C1         -3.9290   -0.7079   -1.2905 C.3       1 <0>        -0.1454
      2 C2         -2.6145    0.0750   -1.2925 C.3       1 <0>        -0.1086
      3 C3         -2.6053    1.0532   -2.4689 C.3       1 <0>        -0.1522
      4 C4         -2.4820    0.8526    0.0185 C.3       1 <0>         0.0809
      5 H1         -2.4886    0.1557    0.8565 H         1 <0>         0.1195
      6 C5         -1.1873    1.6238    0.0165 C.2       1 <0>         0.5240
      7 O1         -1.2037    2.8360    0.0232 O.2       1 <0>        -0.4403
      8 N1         -0.0111    0.9658    0.0074 N.am      1 <0>        -0.6869
      9 C6          1.1468    1.6555   -0.0000 C.2       1 <0>         0.6988
     10 O2          1.1303    2.8708    0.0067 O.2       1 <0>        -0.5289
     11 N2          2.3230    0.9976   -0.0148 N.am      1 <0>        -0.8526
     12 O3         -3.5951    1.7759    0.1481 O.3       1 <0>        -0.3198
     13 C7         -4.6959    1.3204    0.7665 C.2       1 <0>         0.4679
     14 O4         -4.7283    0.1877    1.1857 O.2       1 <0>        -0.4892
     15 C8         -5.8914    2.2218    0.9381 C.3       1 <0>        -0.0853
     16 C9         -5.4918    3.4510    1.7589 C.3       1 <0>        -0.1192
     17 C10        -6.7236    4.3313    1.9828 C.3       1 <0>         0.0526
     18 N3         -7.7562    3.5620    2.6887 N.pl3     1 <0>        -0.4698
     19 C11        -8.1894    2.4035    1.8972 C.3       1 <0>         0.0156
     20 C12        -7.0018    1.4650    1.6721 C.3       1 <0>        -0.1022
     21 C13        -8.8373    4.3692    3.0231 C.ar      1 <0>         0.3934
     22 C14        -8.6309    5.5215    3.7751 C.ar      1 <0>        -0.1462
     23 C15        -9.7155    6.3154    4.1007 C.ar      1 <0>         0.0757
     24 C16       -10.9752    5.9292    3.6616 C.ar      1 <0>        -0.2206
     25 C17       -11.1073    4.7733    2.9190 C.ar      1 <0>         0.2078
     26 C18       -12.1856    6.7639    3.9922 C.3       1 <0>         0.5259
     27 F1        -12.3857    7.7143    2.9854 F         1 <0>        -0.1568
     28 F2        -13.3108    5.9377    4.0841 F         1 <0>        -0.1628
     29 F3        -11.9837    7.4144    5.2142 F         1 <0>        -0.1558
     30 H2         -4.0233   -1.2619   -2.2245 H         1 <0>         0.0682
     31 H3         -3.9355   -1.4048   -0.4525 H         1 <0>         0.0703
     32 H4         -4.7646   -0.0148   -1.1932 H         1 <0>         0.0482
     33 H5         -1.7789   -0.6181   -1.3898 H         1 <0>         0.0970
     34 H6         -1.6688    1.6110   -2.4703 H         1 <0>         0.0577
     35 H7         -2.6996    0.4992   -3.4029 H         1 <0>         0.0682
     36 H8         -3.4409    1.7464   -2.3716 H         1 <0>         0.0645
     37 H9          0.0021   -0.0041    0.0020 H         1 <0>         0.4124
     38 H10         2.3361    0.0277   -0.0201 H         1 <0>         0.4021
     39 H11         3.1563    1.4940   -0.0201 H         1 <0>         0.4247
     40 H12        -6.2520    2.5388   -0.0405 H         1 <0>         0.1178
     41 H13        -5.0938    3.1318    2.7222 H         1 <0>         0.0933
     42 H14        -4.7319    4.0171    1.2202 H         1 <0>         0.1141
     43 H15        -7.1121    4.6624    1.0198 H         1 <0>         0.0817
     44 H16        -6.4456    5.1996    2.5802 H         1 <0>         0.1159
     45 H17        -8.5711    2.7436    0.9345 H         1 <0>         0.0800
     46 H18        -8.9762    1.8718    2.4323 H         1 <0>         0.1045
     47 H19        -7.3200    0.6130    1.0713 H         1 <0>         0.1044
     48 H20        -6.6283    1.1135    2.6339 H         1 <0>         0.0994
     49 H21        -7.6373    5.7921    4.1006 H         1 <0>         0.2008
     50 H22        -9.5859    7.2154    4.6835 H         1 <0>         0.1917
     51 H23       -12.0850    4.4692    2.5755 H         1 <0>         0.2102
     52 N4        -10.0634    3.9722    2.5753 N.ar      1 <0>        -0.5237
     53 H24       -10.1901    3.1218    2.0140 H         1 <0>         0.4772
@<TRIPOS>BOND
     1    1    2 1
     2    1   30 1
     3    1   31 1
     4    1   32 1
     5    2    3 1
     6    2    4 1
     7    2   33 1
     8    3   34 1
     9    3   35 1
    10    3   36 1
    11    4    5 1
    12    4    6 1
    13    4   12 1
    14    6    7 2
    15    6    8 am
    16    8    9 am
    17    8   37 1
    18    9   10 2
    19    9   11 am
    20   11   38 1
    21   11   39 1
    22   12   13 1
    23   13   14 2
    24   13   15 1
    25   15   20 1
    26   15   16 1
    27   15   40 1
    28   16   17 1
    29   16   41 1
    30   16   42 1
    31   17   18 1
    32   17   43 1
    33   17   44 1
    34   18   19 1
    35   18   21 1
    36   19   20 1
    37   19   45 1
    38   19   46 1
    39   20   47 1
    40   20   48 1
    41   21   22 ar
    42   21   52 ar
    43   22   23 ar
    44   22   49 1
    45   23   24 ar
    46   23   50 1
    47   24   25 ar
    48   24   26 1
    49   25   51 1
    50   25   52 ar
    51   26   27 1
    52   26   28 1
    53   26   29 1
    54   52   53 1
@<TRIPOS>MOLECULE
ZINC29480619
   51    53     0     0     0
SMALL
USER_CHARGES
2-[2-[(4R)-4-methyl-2-oxo-3,4-dihydro-1H-1,5-benzodiazepin-5-yl]-2-oxo-ethyl]-3-[[(2R)-tetrahydrofuran-2-yl]methyl]isothiourea
@<TRIPOS>ATOM
      1 C1          0.8517    4.2407   -2.2091 C.3       1 <0>        -0.1639
      2 C2          1.9171    4.3777   -1.1195 C.3       1 <0>         0.1471
      3 H1          2.0474    5.4306   -0.8291 H         1 <0>         0.1176
      4 C3          3.2383    3.7973   -1.6249 C.3       1 <0>        -0.1555
      5 C4          4.1740    3.5569   -0.4697 C.2       1 <0>         0.5278
      6 O1          5.1018    4.3142   -0.2778 O.2       1 <0>        -0.5112
      7 N1          3.9862    2.5033    0.3537 N.am      1 <0>        -0.6929
      8 C5          2.8650    1.6791    0.2054 C.ar      1 <0>         0.1551
      9 C6          2.9958    0.3003    0.1828 C.ar      1 <0>        -0.1213
     10 C7          1.8700   -0.4960    0.0790 C.ar      1 <0>        -0.0831
     11 C8          0.6148    0.0789   -0.0024 C.ar      1 <0>        -0.1165
     12 C9          0.4763    1.4548    0.0112 C.ar      1 <0>        -0.1033
     13 C10         1.5996    2.2593    0.1065 C.ar      1 <0>         0.0811
     14 N2          1.4832    3.6563    0.0787 N.am      1 <0>        -0.5521
     15 C11         0.9803    4.3236    1.1362 C.2       1 <0>         0.5500
     16 O2          0.8843    5.5322    1.1009 O.2       1 <0>        -0.4966
     17 C12         0.5374    3.5681    2.3626 C.3       1 <0>        -0.2011
     18 S1         -0.0856    4.7351    3.5980 S.3       1 <0>         0.1585
     19 C13        -0.5208    3.6141    4.8858 C.cat     1 <0>         0.4632
     20 N3         -0.3363    2.3330    4.7253 N.pl3     1 <0>        -0.6512
     21 C14        -0.7709    1.3946    5.7629 C.3       1 <0>         0.0803
     22 C15        -1.8973    0.5154    5.2160 C.3       1 <0>         0.0545
     23 H2         -1.5596    0.0070    4.3009 H         1 <0>         0.0861
     24 C16        -2.3671   -0.4707    6.3030 C.3       1 <0>        -0.1516
     25 C17        -3.8729   -0.1555    6.4761 C.3       1 <0>        -0.1586
     26 C18        -4.2115    0.5548    5.1407 C.3       1 <0>         0.0484
     27 O3         -3.0252    1.3318    4.8591 O.3       1 <0>        -0.3770
     28 N4         -1.0551    4.0902    6.0607 N.pl3     1 <0>        -0.7962
     29 H3          1.1766    4.7823   -3.1097 H         1 <0>         0.0844
     30 H4         -0.0975    4.6642   -1.8490 H         1 <0>         0.0693
     31 H5          0.7101    3.1772   -2.4518 H         1 <0>         0.0668
     32 H6          3.0471    2.8437   -2.1388 H         1 <0>         0.1009
     33 H7          3.7051    4.5046   -2.3262 H         1 <0>         0.1267
     34 H8          4.7170    2.2883    1.1473 H         1 <0>         0.4382
     35 H9          3.9746   -0.1517    0.2457 H         1 <0>         0.1403
     36 H10         1.9714   -1.5710    0.0611 H         1 <0>         0.1386
     37 H11        -0.2607   -0.5491   -0.0765 H         1 <0>         0.1371
     38 H12        -0.5049    1.9008   -0.0568 H         1 <0>         0.1343
     39 H13        -0.2608    2.8620    2.0899 H         1 <0>         0.1443
     40 H14         1.3909    3.0135    2.7797 H         1 <0>         0.1404
     41 H15         0.0767    0.7606    6.0622 H         1 <0>         0.1284
     42 H16        -1.1350    1.9561    6.6359 H         1 <0>         0.1018
     43 H17        -2.1979   -1.5021    5.9602 H         1 <0>         0.0905
     44 H18        -1.7993   -0.2941    7.2284 H         1 <0>         0.0848
     45 H19        -4.4299   -1.0934    6.6178 H         1 <0>         0.0921
     46 H20        -4.0136    0.4909    7.3550 H         1 <0>         0.0812
     47 H21        -4.4113   -0.1990    4.3649 H         1 <0>         0.0723
     48 H22        -5.1020    1.1860    5.2766 H         1 <0>         0.1035
     49 H23        -1.3268    3.3904    6.8647 H         1 <0>         0.4510
     50 H24        -1.2106    5.1707    6.1961 H         1 <0>         0.4730
     51 H25         0.1457    1.9571    3.8108 H         1 <0>         0.4622
@<TRIPOS>BOND
     1    1    2 1
     2    1   29 1
     3    1   30 1
     4    1   31 1
     5    2    3 1
     6    2   14 1
     7    2    4 1
     8    4    5 1
     9    4   32 1
    10    4   33 1
    11    5    6 2
    12    5    7 am
    13    7    8 1
    14    7   34 1
    15    8   13 ar
    16    8    9 ar
    17    9   10 ar
    18    9   35 1
    19   10   11 ar
    20   10   36 1
    21   11   12 ar
    22   11   37 1
    23   12   13 ar
    24   12   38 1
    25   13   14 1
    26   14   15 am
    27   15   16 2
    28   15   17 1
    29   17   18 1
    30   17   39 1
    31   17   40 1
    32   18   19 1
    33   19   20 2
    34   19   28 1
    35   20   21 1
    36   20   51 1
    37   21   22 1
    38   21   41 1
    39   21   42 1
    40   22   23 1
    41   22   27 1
    42   22   24 1
    43   24   25 1
    44   24   43 1
    45   24   44 1
    46   25   26 1
    47   25   45 1
    48   25   46 1
    49   26   27 1
    50   26   47 1
    51   26   48 1
    52   28   49 1
    53   28   50 1
@<TRIPOS>MOLECULE
ZINC43147386
   57    58     0     0     0
SMALL
USER_CHARGES

@<TRIPOS>ATOM
      1 C1         -1.2024    1.1287    0.0805 C.3       1 <0>        -0.1165
      2 C2         -1.2398   -0.3768    0.1361 C.ar      1 <0>        -0.0540
      3 C3         -1.4126   -1.1069   -1.0256 C.ar      1 <0>        -0.1454
      4 C4         -1.4473   -2.4881   -0.9779 C.ar      1 <0>        -0.0758
      5 C5         -1.3099   -3.1425    0.2312 C.ar      1 <0>        -0.1088
      6 C6         -1.1365   -2.4124    1.3978 C.ar      1 <0>         0.1222
      7 C7         -1.0958   -1.0264    1.3465 C.ar      1 <0>        -0.2080
      8 O1         -1.0010   -3.0537    2.5883 O.3       1 <0>        -0.2844
      9 C8         -0.8259   -2.2379    3.7484 C.3       1 <0>         0.0547
     10 C9         -0.6941   -3.1169    4.9654 C.2       1 <0>         0.5171
     11 O2         -0.7451   -4.3232    4.8505 O.2       1 <0>        -0.4839
     12 N1         -0.5195   -2.5625    6.1814 N.am      1 <0>        -0.5363
     13 N2         -0.3970   -3.3797    7.3127 N.am      1 <0>        -0.5191
     14 C10        -0.2224   -2.8253    8.5287 C.2       1 <0>         0.7189
     15 O3         -0.1161   -3.5345    9.5106 O.2       1 <0>        -0.5446
     16 N3         -0.1657   -1.4848    8.6563 N.am      1 <0>        -0.7619
     17 C11         0.0241   -0.8822    9.9781 C.3       1 <0>         0.1253
     18 C12         0.1650    0.6343    9.8318 C.3       1 <0>         0.0374
     19 C13         1.4367    0.9715    9.0263 C.3       1 <0>        -0.1372
     20 C14         1.9861    2.2522    9.7025 C.3       1 <0>        -0.1380
     21 C15         1.7062    1.9930   11.2037 C.3       1 <0>        -0.1276
     22 C16         0.3363    1.2837   11.2162 C.3       1 <0>        -0.1344
     23 N4         -1.0187    1.1867    9.1598 N.4       1 <0>        -0.3800
     24 C17        -2.2124    0.9217    9.9740 C.3       1 <0>        -0.0604
     25 C18        -0.8536    2.6365    8.9904 C.3       1 <0>        -0.0608
     26 C19        -1.3489   -4.6481    0.2825 C.3       1 <0>        -0.1109
     27 H1         -0.1754    1.4613   -0.0703 H         1 <0>         0.0739
     28 H2         -1.8222    1.4773   -0.7456 H         1 <0>         0.0719
     29 H3         -1.5825    1.5365    1.0171 H         1 <0>         0.0635
     30 H4         -1.5209   -0.5973   -1.9716 H         1 <0>         0.1279
     31 H5         -1.5824   -3.0561   -1.8865 H         1 <0>         0.1345
     32 H6         -0.9562   -0.4558    2.2528 H         1 <0>         0.1234
     33 H7          0.0754   -1.6353    3.6361 H         1 <0>         0.0999
     34 H8         -1.6889   -1.5825    3.8653 H         1 <0>         0.0985
     35 H9         -0.4787   -1.5977    6.2732 H         1 <0>         0.4123
     36 H10        -0.4378   -4.3445    7.2209 H         1 <0>         0.4535
     37 H11        -0.2505   -0.9190    7.8730 H         1 <0>         0.3821
     38 H12        -0.8368   -1.1081   10.6074 H         1 <0>         0.0983
     39 H13         0.9258   -1.2883   10.4365 H         1 <0>         0.1200
     40 H14         2.1612    0.1605    9.1000 H         1 <0>         0.1153
     41 H15         1.1870    1.1678    7.9836 H         1 <0>         0.0861
     42 H16         3.0559    2.3561    9.5214 H         1 <0>         0.0939
     43 H17         1.4470    3.1338    9.3556 H         1 <0>         0.0799
     44 H18         2.4742    1.3470   11.6290 H         1 <0>         0.0876
     45 H19         1.6531    2.9348   11.7500 H         1 <0>         0.0894
     46 H20        -0.4584    2.0095   11.3890 H         1 <0>         0.0933
     47 H21         0.3191    0.5186   11.9923 H         1 <0>         0.1091
     48 H22        -3.0759    1.4102    9.5226 H         1 <0>         0.1299
     49 H23        -2.3874   -0.1531   10.0230 H         1 <0>         0.1258
     50 H24        -2.0595    1.3112   10.9805 H         1 <0>         0.1296
     51 H25         0.0321    2.8332    8.3862 H         1 <0>         0.1296
     52 H26        -1.7319    3.0465    8.4917 H         1 <0>         0.1279
     53 H27        -0.7384    3.1057    9.9674 H         1 <0>         0.1289
     54 H28        -0.3397   -5.0420    0.1624 H         1 <0>         0.0713
     55 H29        -1.7520   -4.9685    1.2432 H         1 <0>         0.0722
     56 H30        -1.9832   -5.0227   -0.5209 H         1 <0>         0.0685
     57 H31        -1.1253    0.7524    8.2553 H         1 <0>         0.4145
@<TRIPOS>BOND
     1    1    2 1
     2    1   27 1
     3    1   28 1
     4    1   29 1
     5    2    7 ar
     6    2    3 ar
     7    3    4 ar
     8    3   30 1
     9    4    5 ar
    10    4   31 1
    11    5    6 ar
    12    5   26 1
    13    6    7 ar
    14    6    8 1
    15    7   32 1
    16    8    9 1
    17    9   10 1
    18    9   33 1
    19    9   34 1
    20   10   11 2
    21   10   12 am
    22   12   13 1
    23   12   35 1
    24   13   14 am
    25   13   36 1
    26   14   15 2
    27   14   16 am
    28   16   17 1
    29   16   37 1
    30   17   18 1
    31   17   38 1
    32   17   39 1
    33   18   22 1
    34   18   19 1
    35   18   23 1
    36   19   20 1
    37   19   40 1
    38   19   41 1
    39   20   21 1
    40   20   42 1
    41   20   43 1
    42   21   22 1
    43   21   44 1
    44   21   45 1
    45   22   46 1
    46   22   47 1
    47   23   24 1
    48   23   25 1
    49   23   57 1
    50   24   48 1
    51   24   49 1
    52   24   50 1
    53   25   51 1
    54   25   52 1
    55   25   53 1
    56   26   54 1
    57   26   55 1
    58   26   56 1
@<TRIPOS>MOLECULE
ZINC56650678
   60    61     0     0     0
SMALL
USER_CHARGES

@<TRIPOS>ATOM
      1 C1          0.7130    1.0304    1.8588 C.3       1 <0>        -0.1782
      2 C2          0.6525   -0.5005    1.8816 C.3       1 <0>         0.0624
      3 C3         -0.7270   -0.9688    1.4299 C.3       1 <0>        -0.1411
      4 C4         -1.7583   -0.7283    2.5325 C.3       1 <0>         0.1593
      5 C5         -1.3249   -1.5144    3.7700 C.3       1 <0>        -0.1444
      6 C6          0.0502   -1.0509    4.2394 C.3       1 <0>         0.0600
      7 N1          1.0418   -1.0251    3.1786 N.4       1 <0>        -0.4905
      8 C7          0.5345   -2.0545    5.3115 C.3       1 <0>        -0.1788
      9 C8         -0.0690    0.3148    4.9238 C.3       1 <0>        -0.1736
     10 N2         -3.0688   -1.2153    2.0841 N.am      1 <0>        -0.7403
     11 C9         -4.1963   -0.6960    2.6089 C.2       1 <0>         0.7082
     12 O1         -4.1283    0.1758    3.4538 O.2       1 <0>        -0.5681
     13 N3         -5.3993   -1.1431    2.1973 N.am      1 <0>        -0.6693
     14 C10        -6.5687   -0.6790    2.8158 C.ar      1 <0>         0.1213
     15 C11        -6.6310    0.6172    3.2936 C.ar      1 <0>        -0.0327
     16 C12        -7.7983    1.0758    3.9089 C.ar      1 <0>        -0.1470
     17 C13        -8.8976    0.2233    4.0388 C.ar      1 <0>        -0.0606
     18 C14        -8.8297   -1.0673    3.5607 C.ar      1 <0>        -0.1940
     19 C15        -7.6724   -1.5229    2.9444 C.ar      1 <0>         0.1284
     20 O2         -7.6125   -2.7938    2.4699 O.3       1 <0>        -0.3170
     21 C16        -8.7785   -3.6034    2.6349 C.3       1 <0>         0.0248
     22 C17        -7.8701    2.4583    4.4212 C.2       1 <0>         0.5630
     23 O3         -7.5012    3.3845    3.7252 O.2       1 <0>        -0.5300
     24 N4         -8.3446    2.6940    5.6604 N.am      1 <0>        -0.6150
     25 C18        -8.3273    4.0538    6.2051 C.3       1 <0>         0.0845
     26 C19        -8.8777    1.5902    6.4628 C.3       1 <0>         0.0573
     27 C20         1.6767   -1.0101    0.8412 C.3       1 <0>        -0.1794
     28 H1          1.7305    1.3570    2.0736 H         1 <0>         0.0850
     29 H2          0.4158    1.3912    0.8741 H         1 <0>         0.1057
     30 H3          0.0358    1.4320    2.6126 H         1 <0>         0.0838
     31 H4         -1.0224   -0.4203    0.5323 H         1 <0>         0.1171
     32 H5         -0.6911   -2.0350    1.1940 H         1 <0>         0.0958
     33 H6         -1.8329    0.3311    2.7604 H         1 <0>         0.1095
     34 H7         -2.0538   -1.3609    4.5695 H         1 <0>         0.1151
     35 H8         -1.2882   -2.5792    3.5281 H         1 <0>         0.0909
     36 H9          1.3932   -1.9788    3.0457 H         1 <0>         0.4238
     37 H10         0.5959   -3.0513    4.8748 H         1 <0>         0.0813
     38 H11         1.5185   -1.7545    5.6719 H         1 <0>         0.0835
     39 H12        -0.1695   -2.0651    6.1436 H         1 <0>         0.1066
     40 H13        -0.7349    0.2337    5.7829 H         1 <0>         0.1057
     41 H14         0.9161    0.6413    5.2572 H         1 <0>         0.0816
     42 H15        -0.4729    1.0408    4.2182 H         1 <0>         0.0834
     43 H16        -3.1231   -1.9108    1.4101 H         1 <0>         0.4036
     44 H17        -5.4560   -1.7859    1.4731 H         1 <0>         0.4136
     45 H18        -5.7791    1.2732    3.1917 H         1 <0>         0.1576
     46 H19        -9.8008    0.5759    4.5144 H         1 <0>         0.1399
     47 H20        -9.6806   -1.7247    3.6621 H         1 <0>         0.1438
     48 H21        -8.5969   -4.5921    2.2134 H         1 <0>         0.1054
     49 H22        -9.0083   -3.6975    3.6962 H         1 <0>         0.0611
     50 H23        -9.6195   -3.1382    2.1208 H         1 <0>         0.0621
     51 H24        -9.2587    4.5593    5.9500 H         1 <0>         0.0594
     52 H25        -8.2230    4.0097    7.2892 H         1 <0>         0.0731
     53 H26        -7.4873    4.6043    5.7814 H         1 <0>         0.0773
     54 H27        -8.7609    0.6544    5.9164 H         1 <0>         0.0917
     55 H28        -8.3339    1.5307    7.4056 H         1 <0>         0.0649
     56 H29        -9.9348    1.7644    6.6635 H         1 <0>         0.0668
     57 H30         2.6732   -0.6604    1.1109 H         1 <0>         0.0850
     58 H31         1.6662   -2.0999    0.8247 H         1 <0>         0.0820
     59 H32         1.4127   -0.6292   -0.1454 H         1 <0>         0.1075
     60 H33         1.8525   -0.4932    3.5099 H         1 <0>         0.4271
@<TRIPOS>BOND
     1    1    2 1
     2    1   28 1
     3    1   29 1
     4    1   30 1
     5    2    7 1
     6    2    3 1
     7    2   27 1
     8    3    4 1
     9    3   31 1
    10    3   32 1
    11    4    5 1
    12    4   10 1
    13    4   33 1
    14    5    6 1
    15    5   34 1
    16    5   35 1
    17    6    7 1
    18    6    8 1
    19    6    9 1
    20    7   36 1
    21    7   60 1
    22    8   37 1
    23    8   38 1
    24    8   39 1
    25    9   40 1
    26    9   41 1
    27    9   42 1
    28   10   11 am
    29   10   43 1
    30   11   12 2
    31   11   13 am
    32   13   14 1
    33   13   44 1
    34   14   19 ar
    35   14   15 ar
    36   15   16 ar
    37   15   45 1
    38   16   17 ar
    39   16   22 1
    40   17   18 ar
    41   17   46 1
    42   18   19 ar
    43   18   47 1
    44   19   20 1
    45   20   21 1
    46   21   48 1
    47   21   49 1
    48   21   50 1
    49   22   23 2
    50   22   24 am
    51   24   25 1
    52   24   26 1
    53   25   51 1
    54   25   52 1
    55   25   53 1
    56   26   54 1
    57   26   55 1
    58   26   56 1
    59   27   57 1
    60   27   58 1
    61   27   59 1
@<TRIPOS>MOLECULE
ZINC64672754
   43    46     0     0     0
SMALL
USER_CHARGES

@<TRIPOS>ATOM
      1 C1         -0.0162    1.3462    0.0094 C.ar      1 <0>        -0.1149
      2 C2          1.1580    2.1163    0.0024 C.ar      1 <0>         0.0393
      3 C3          2.3844    1.5506   -0.0124 C.ar      1 <0>        -0.1880
      4 C4          2.4955    0.0834   -0.0214 C.ar      1 <0>         0.3238
      5 N1          3.5285   -0.7113   -0.0355 N.pl3     1 <0>        -0.5490
      6 C5          3.0662   -2.1030   -0.0386 C.3       1 <0>         0.0598
      7 C6          1.5546   -2.0418   -0.0238 C.2       1 <0>        -0.0207
      8 C7          1.2366   -0.7013   -0.0136 C.ar      1 <0>        -0.0598
      9 C8          0.0021   -0.0041    0.0020 C.ar      1 <0>        -0.0504
     10 C9          0.6220   -3.1737   -0.0214 C.2       1 <0>         0.5696
     11 O1         -0.5779   -2.9732   -0.0093 O.2       1 <0>        -0.4664
     12 N2          1.0943   -4.4360   -0.0327 N.am      1 <0>        -0.5276
     13 N3          0.2034   -5.5172   -0.0304 N.pl3     1 <0>        -0.4725
     14 C10         0.6757   -6.7795   -0.0417 C.2       1 <0>         0.5477
     15 S1         -0.4129   -8.1008   -0.0389 S.2       1 <0>        -0.5292
     16 N4          2.0050   -7.0016   -0.0551 N.pl3     1 <0>        -0.6783
     17 C11         2.5183   -8.3736   -0.0674 C.3       1 <0>         0.1682
     18 C12         4.0250   -8.3462   -0.0811 C.ar      1 <0>        -0.1176
     19 C13         4.7035   -8.3213   -1.2854 C.ar      1 <0>        -0.0844
     20 C14         6.0855   -8.2955   -1.3032 C.ar      1 <0>        -0.1032
     21 C15         6.7943   -8.2951   -0.1128 C.ar      1 <0>         0.0506
     22 C16         6.1109   -8.3202    1.1004 C.ar      1 <0>         0.0314
     23 C17         4.7256   -8.3401    1.1106 C.ar      1 <0>        -0.0804
     24 O2          7.0235   -8.3144    2.1154 O.3       1 <0>        -0.3063
     25 C18         8.2730   -8.6976    1.5112 C.3       1 <0>         0.2119
     26 O3          8.1351   -8.2734    0.1422 O.3       1 <0>        -0.3054
     27 H1         -0.9699    1.8529    0.0259 H         1 <0>         0.1628
     28 H2          1.0781    3.1933    0.0086 H         1 <0>         0.1702
     29 H3          3.2714    2.1667   -0.0179 H         1 <0>         0.1720
     30 H4          3.4123   -2.6114   -0.9385 H         1 <0>         0.1833
     31 H5          3.4294   -2.6210    0.8490 H         1 <0>         0.1831
     32 H6         -0.9269   -0.5548    0.0083 H         1 <0>         0.1715
     33 H7          2.0510   -4.5958   -0.0424 H         1 <0>         0.4213
     34 H8         -0.7533   -5.3574   -0.0207 H         1 <0>         0.4638
     35 H9          2.6218   -6.2529   -0.0567 H         1 <0>         0.3869
     36 H10         2.1726   -8.8989    0.8230 H         1 <0>         0.1073
     37 H11         2.1562   -8.8891   -0.9569 H         1 <0>         0.1099
     38 H12         4.1526   -8.3223   -2.2144 H         1 <0>         0.1438
     39 H13         6.6129   -8.2760   -2.2455 H         1 <0>         0.1425
     40 H14         4.1929   -8.3551    2.0499 H         1 <0>         0.1403
     41 H15         9.1045   -8.1808    1.9904 H         1 <0>         0.1382
     42 H16         8.4094   -9.7776    1.5656 H         1 <0>         0.0927
     43 H17         4.4559   -0.4273   -0.0433 H         1 <0>         0.4624
@<TRIPOS>BOND
     1    1    9 ar
     2    1    2 ar
     3    1   27 1
     4    2    3 ar
     5    2   28 1
     6    3    4 ar
     7    3   29 1
     8    4    8 ar
     9    4    5 2
    10    5    6 1
    11    5   43 1
    12    6    7 1
    13    6   30 1
    14    6   31 1
    15    7    8 2
    16    7   10 1
    17    8    9 ar
    18    9   32 1
    19   10   11 2
    20   10   12 am
    21   12   13 1
    22   12   33 1
    23   13   14 1
    24   13   34 1
    25   14   15 2
    26   14   16 1
    27   16   17 1
    28   16   35 1
    29   17   18 1
    30   17   36 1
    31   17   37 1
    32   18   23 ar
    33   18   19 ar
    34   19   20 ar
    35   19   38 1
    36   20   21 ar
    37   20   39 1
    38   21   26 1
    39   21   22 ar
    40   22   23 ar
    41   22   24 1
    42   23   40 1
    43   24   25 1
    44   25   26 1
    45   25   41 1
    46   25   42 1
@<TRIPOS>MOLECULE
ZINC03538925
   62    64     0     0     0
SMALL
USER_CHARGES
N-(6-amino-1-benzyl-2,4-dioxo-pyrimidin-5-yl)-2-azocan-1-yl-N-ethyl-acetamide
@<TRIPOS>ATOM
      1 C1         -4.4586    7.1347   -5.2752 C.3       1 <0>        -0.1730
      2 C2         -3.0639    6.5229   -5.4217 C.3       1 <0>         0.0860
      3 N1         -2.4901    6.2917   -4.0937 N.am      1 <0>        -0.4997
      4 C3         -2.6434    5.0365   -3.4678 C.2       1 <0>        -0.1697
      5 C4         -2.0219    3.9161   -3.9804 C.2       1 <0>         0.5086
      6 N2         -2.1947    2.7053   -3.3511 N.am      1 <0>        -0.5319
      7 C5         -2.9519    2.6162   -2.2425 C.2       1 <0>         0.7116
      8 O1         -3.0886    1.5374   -1.6982 O.2       1 <0>        -0.5167
      9 N3         -3.5606    3.6982   -1.7256 N.am      1 <0>        -0.6613
     10 H1         -4.1179    3.6048   -0.9005 H         1 <0>         0.4441
     11 C6         -3.4282    4.9066   -2.3066 C.2       1 <0>         0.5778
     12 O2         -3.9848    5.8812   -1.8299 O.2       1 <0>        -0.5229
     13 C7         -1.5456    1.5066   -3.8877 C.3       1 <0>         0.1461
     14 C8         -2.4666    0.8353   -4.8737 C.ar      1 <0>        -0.1335
     15 C9         -3.3656   -0.1209   -4.4394 C.ar      1 <0>        -0.0849
     16 C10        -4.2070   -0.7401   -5.3446 C.ar      1 <0>        -0.1162
     17 C11        -4.1569   -0.3956   -6.6824 C.ar      1 <0>        -0.1002
     18 C12        -3.2616    0.5643   -7.1158 C.ar      1 <0>        -0.1195
     19 C13        -2.4165    1.1798   -6.2115 C.ar      1 <0>        -0.1063
     20 N4         -1.2435    4.0081   -5.1093 N.pl3     1 <0>        -0.8294
     21 C14        -1.8151    7.2791   -3.4691 C.2       1 <0>         0.5029
     22 O3         -1.2590    7.0600   -2.4132 O.2       1 <0>        -0.5038
     23 C15        -1.7518    8.6539   -4.0830 C.3       1 <0>        -0.0311
     24 C16        -0.7875   10.8554   -3.7980 C.3       1 <0>        -0.0052
     25 C17        -0.3837   11.8948   -2.7525 C.3       1 <0>        -0.1657
     26 C18         1.0529   11.6232   -2.2938 C.3       1 <0>        -0.1374
     27 C19         1.0542   10.4011   -1.3718 C.3       1 <0>        -0.1338
     28 C20        -0.1182   10.5020   -0.3957 C.3       1 <0>        -0.1469
     29 C21        -1.1362    9.4039   -0.7017 C.3       1 <0>        -0.1479
     30 C22        -1.9367    9.7872   -1.9506 C.3       1 <0>        -0.0082
     31 H2         -5.0983    6.4511   -4.7170 H         1 <0>         0.0718
     32 H3         -4.3856    8.0819   -4.7410 H         1 <0>         0.0546
     33 H4         -4.8855    7.3067   -6.2633 H         1 <0>         0.0795
     34 H5         -2.4241    7.2065   -5.9799 H         1 <0>         0.0859
     35 H6         -3.1369    5.5757   -5.9559 H         1 <0>         0.0954
     36 H7         -1.3224    0.8184   -3.0724 H         1 <0>         0.1259
     37 H8         -0.6197    1.7884   -4.3891 H         1 <0>         0.1021
     38 H9         -3.4078   -0.3868   -3.3935 H         1 <0>         0.1343
     39 H10        -4.9067   -1.4899   -5.0059 H         1 <0>         0.1302
     40 H11        -4.8174   -0.8762   -7.3889 H         1 <0>         0.1290
     41 H12        -3.2227    0.8337   -8.1610 H         1 <0>         0.1278
     42 H13        -1.7173    1.9300   -6.5500 H         1 <0>         0.1139
     43 H14        -0.8863    3.2046   -5.5188 H         1 <0>         0.4121
     44 H15        -1.0514    4.8764   -5.4965 H         1 <0>         0.4218
     45 H16        -1.1763    8.6127   -5.0078 H         1 <0>         0.1555
     46 H17        -2.7619    9.0023   -4.2988 H         1 <0>         0.1599
     47 H18         0.0351   10.7082   -4.4979 H         1 <0>         0.1274
     48 H19        -1.6630   11.2105   -4.3415 H         1 <0>         0.1319
     49 H20        -1.0567   11.8308   -1.8974 H         1 <0>         0.1058
     50 H21        -0.4437   12.8918   -3.1889 H         1 <0>         0.1118
     51 H22         1.4334   12.4895   -1.7526 H         1 <0>         0.0898
     52 H23         1.6825   11.4267   -3.1616 H         1 <0>         0.0777
     53 H24         1.9900   10.3673   -0.8139 H         1 <0>         0.0880
     54 H25         0.9533    9.4948   -1.9689 H         1 <0>         0.0472
     55 H26        -0.5940   11.4771   -0.4995 H         1 <0>         0.0847
     56 H27         0.2475   10.3838    0.6243 H         1 <0>         0.0861
     57 H28        -1.8142    9.2906    0.1442 H         1 <0>         0.1072
     58 H29        -0.6145    8.4634   -0.8786 H         1 <0>         0.1050
     59 H30        -2.2286   10.8356   -1.8881 H         1 <0>         0.1356
     60 H31        -2.8287    9.1642   -2.0164 H         1 <0>         0.1261
     61 N5         -1.0789    9.5670   -3.1359 N.4       1 <0>        -0.3865
     62 H32        -0.1951    9.1411   -2.8329 H         1 <0>         0.4307
@<TRIPOS>BOND
     1    1    2 1
     2    1   31 1
     3    1   32 1
     4    1   33 1
     5    2    3 1
     6    2   34 1
     7    2   35 1
     8    3    4 1
     9    3   21 am
    10    4   11 1
    11    4    5 2
    12    5    6 1
    13    5   20 1
    14    6    7 am
    15    6   13 1
    16    7    8 2
    17    7    9 am
    18    9   10 1
    19    9   11 am
    20   11   12 2
    21   13   14 1
    22   13   36 1
    23   13   37 1
    24   14   19 ar
    25   14   15 ar
    26   15   16 ar
    27   15   38 1
    28   16   17 ar
    29   16   39 1
    30   17   18 ar
    31   17   40 1
    32   18   19 ar
    33   18   41 1
    34   19   42 1
    35   20   43 1
    36   20   44 1
    37   21   22 2
    38   21   23 1
    39   23   45 1
    40   23   46 1
    41   23   61 1
    42   24   25 1
    43   24   47 1
    44   24   48 1
    45   24   61 1
    46   25   26 1
    47   25   49 1
    48   25   50 1
    49   26   27 1
    50   26   51 1
    51   26   52 1
    52   27   28 1
    53   27   53 1
    54   27   54 1
    55   28   29 1
    56   28   55 1
    57   28   56 1
    58   29   30 1
    59   29   57 1
    60   29   58 1
    61   30   59 1
    62   30   60 1
    63   30   61 1
    64   61   62 1
@<TRIPOS>MOLECULE
ZINC36273630
   52    56     0     0     0
SMALL
USER_CHARGES

@<TRIPOS>ATOM
      1 C1          1.0619   -0.2458   -0.5229 C.ar      1 <0>        -0.0718
      2 C2          2.1305    0.6033   -0.7344 C.ar      1 <0>        -0.0986
      3 C3          1.9248    1.9705   -0.8110 C.ar      1 <0>         0.0956
      4 C4          0.6379    2.4925   -0.6748 C.ar      1 <0>         0.1024
      5 C5         -0.4349    1.6462   -0.4638 C.ar      1 <0>        -0.1230
      6 C6         -0.2251    0.2701   -0.3866 C.ar      1 <0>        -0.0256
      7 C7         -1.3716   -0.6444   -0.1596 C.2       1 <0>         0.1543
      8 C8         -2.3865   -0.4472    0.7284 C.2       1 <0>        -0.1486
      9 N1         -3.2278   -1.5187    0.6210 N.pl3     1 <0>        -0.3090
     10 C9         -4.3912   -1.8433    1.2628 C.2       1 <0>        -0.1013
     11 C10        -5.0449   -2.9923    0.9640 C.2       1 <0>         0.2324
     12 C11        -4.5297   -3.8656   -0.0147 C.2       1 <0>        -0.1290
     13 C12        -3.3741   -3.5498   -0.6573 C.2       1 <0>        -0.0328
     14 C13        -2.7062   -2.3508   -0.3344 C.2       1 <0>         0.2297
     15 N2         -1.5901   -1.8046   -0.7974 N.2       1 <0>        -0.4597
     16 N3         -6.2355   -3.3129    1.6300 N.pl3     1 <0>        -0.8567
     17 C14        -2.5499    0.7304    1.6545 C.3       1 <0>         0.0836
     18 N4         -2.0282    0.3843    2.9834 N.4       1 <0>        -0.3835
     19 C15        -0.5824    0.1480    2.8935 C.3       1 <0>        -0.0102
     20 C16        -0.0477   -0.2917    4.2582 C.3       1 <0>        -0.1429
     21 C17        -0.3237    0.8085    5.2871 C.3       1 <0>        -0.1388
     22 C18        -1.8271    1.0986    5.3187 C.3       1 <0>        -0.1445
     23 C19        -2.2958    1.4868    3.9148 C.3       1 <0>        -0.0091
     24 N5          0.4492    3.8800   -0.7535 N.am      1 <0>        -0.6649
     25 C20         1.4360    4.6470   -1.2659 C.2       1 <0>         0.4913
     26 O1          1.3067    5.8519   -1.3166 O.2       1 <0>        -0.4934
     27 C21         2.6985    3.9992   -1.7749 C.3       1 <0>         0.0482
     28 O2          2.9698    2.8159   -1.0194 O.3       1 <0>        -0.2962
     29 H1          1.2237   -1.3122   -0.4675 H         1 <0>         0.1446
     30 H2          3.1271    0.2008   -0.8397 H         1 <0>         0.1514
     31 H3         -1.4313    2.0496   -0.3585 H         1 <0>         0.1342
     32 H4         -4.7920   -1.1788    2.0140 H         1 <0>         0.1566
     33 H5         -5.0501   -4.7815   -0.2529 H         1 <0>         0.1560
     34 H6         -2.9706   -4.2122   -1.4087 H         1 <0>         0.1683
     35 H7         -6.5909   -2.7127    2.3041 H         1 <0>         0.4061
     36 H8         -6.7042   -4.1350    1.4170 H         1 <0>         0.4142
     37 H9         -1.9986    1.5833    1.2585 H         1 <0>         0.1484
     38 H10        -3.6065    0.9861    1.7342 H         1 <0>         0.1347
     39 H11        -0.3873   -0.6330    2.1586 H         1 <0>         0.1300
     40 H12        -0.0828    1.0670    2.5870 H         1 <0>         0.1293
     41 H13        -0.5465   -1.2109    4.5655 H         1 <0>         0.0844
     42 H14         1.0262   -0.4649    4.1898 H         1 <0>         0.1129
     43 H15         0.0043    0.4768    6.2722 H         1 <0>         0.0943
     44 H16         0.2162    1.7130    5.0072 H         1 <0>         0.0829
     45 H17        -2.3627    0.2083    5.6481 H         1 <0>         0.0859
     46 H18        -2.0249    1.9192    6.0084 H         1 <0>         0.1130
     47 H19        -1.7597    2.3773    3.5865 H         1 <0>         0.1305
     48 H20        -3.3657    1.6943    3.9338 H         1 <0>         0.1290
     49 H21        -0.3773    4.2828   -0.4443 H         1 <0>         0.4158
     50 H22         2.5741    3.7381   -2.8258 H         1 <0>         0.1081
     51 H23         3.5309    4.6951   -1.6705 H         1 <0>         0.1540
     52 H24        -2.4838   -0.4527    3.3149 H         1 <0>         0.4169
@<TRIPOS>BOND
     1    1    6 ar
     2    1    2 ar
     3    1   29 1
     4    2    3 ar
     5    2   30 1
     6    3   28 1
     7    3    4 ar
     8    4    5 ar
     9    4   24 1
    10    5    6 ar
    11    5   31 1
    12    6    7 1
    13    7   15 1
    14    7    8 2
    15    8    9 1
    16    8   17 1
    17    9   14 1
    18    9   10 1
    19   10   11 2
    20   10   32 1
    21   11   12 1
    22   11   16 1
    23   12   13 2
    24   12   33 1
    25   13   14 1
    26   13   34 1
    27   14   15 2
    28   16   35 1
    29   16   36 1
    30   17   18 1
    31   17   37 1
    32   17   38 1
    33   18   23 1
    34   18   19 1
    35   18   52 1
    36   19   20 1
    37   19   39 1
    38   19   40 1
    39   20   21 1
    40   20   41 1
    41   20   42 1
    42   21   22 1
    43   21   43 1
    44   21   44 1
    45   22   23 1
    46   22   45 1
    47   22   46 1
    48   23   47 1
    49   23   48 1
    50   24   25 am
    51   24   49 1
    52   25   26 2
    53   25   27 1
    54   27   28 1
    55   27   50 1
    56   27   51 1
@<TRIPOS>MOLECULE
ZINC45845066
   57    59     0     0     0
SMALL
USER_CHARGES

@<TRIPOS>ATOM
      1 C1         -0.0184    1.5028    0.0103 C.3       1 <0>        -0.1167
      2 C2          0.0021   -0.0041    0.0020 C.ar      1 <0>        -0.0433
      3 C3          0.0058   -0.6882   -1.1995 C.ar      1 <0>        -0.1536
      4 C4          0.0250   -2.0707   -1.2105 C.ar      1 <0>        -0.0360
      5 C5          0.0400   -2.7719   -0.0203 C.ar      1 <0>        -0.1508
      6 C6          0.0364   -2.0878    1.1866 C.ar      1 <0>         0.1319
      7 C7          0.0229   -0.7006    1.1948 C.ar      1 <0>        -0.2194
      8 O1          0.0512   -2.7754    2.3587 O.3       1 <0>        -0.2876
      9 C8          0.0463   -2.0054    3.5626 C.3       1 <0>         0.0552
     10 C9          0.0644   -2.9316    4.7512 C.2       1 <0>         0.5169
     11 O2          0.0800   -4.1327    4.5840 O.2       1 <0>        -0.4899
     12 N1          0.0634   -2.4251    6.0002 N.am      1 <0>        -0.5332
     13 N2          0.0802   -3.2861    7.1053 N.am      1 <0>        -0.5224
     14 C10         0.0791   -2.7796    8.3543 C.2       1 <0>         0.7172
     15 O3          0.0938   -3.5269    9.3133 O.2       1 <0>        -0.5535
     16 N3          0.0619   -1.4448    8.5402 N.am      1 <0>        -0.7501
     17 C11         0.0607   -0.8943    9.8978 C.3       1 <0>         0.1828
     18 C12         0.0399    0.6110    9.8294 C.ar      1 <0>        -0.1646
     19 C13         1.2288    1.3277    9.7862 C.ar      1 <0>         0.0509
     20 C14         1.1656    2.7078    9.7240 C.ar      1 <0>        -0.1926
     21 C15        -0.0798    3.3280    9.7068 C.ar      1 <0>         0.4658
     22 N4         -1.1910    2.6094    9.7493 N.ar      1 <0>        -0.5067
     23 C16        -1.1608    1.2911    9.8033 C.ar      1 <0>         0.1683
     24 N5         -0.1581    4.7144    9.6448 N.pl3     1 <0>        -0.5920
     25 C17         0.9864    5.6355    9.5869 C.3       1 <0>         0.0987
     26 C18         0.4187    7.0702    9.5559 C.3       1 <0>        -0.1347
     27 C19        -0.9962    6.8974   10.1688 C.3       1 <0>        -0.1318
     28 C20        -1.4025    5.5045    9.6200 C.3       1 <0>         0.0765
     29 C21         0.0290   -2.8132   -2.5219 C.3       1 <0>        -0.1204
     30 H1          1.0042    1.8801    0.0026 H         1 <0>         0.0740
     31 H2         -0.5455    1.8639   -0.8728 H         1 <0>         0.0716
     32 H3         -0.5286    1.8543    0.9071 H         1 <0>         0.0640
     33 H4         -0.0067   -0.1418   -2.1310 H         1 <0>         0.1267
     34 H5          0.0543   -3.8518   -0.0294 H         1 <0>         0.1343
     35 H6          0.0245   -0.1656    2.1331 H         1 <0>         0.1236
     36 H7          0.9278   -1.3648    3.5877 H         1 <0>         0.0996
     37 H8         -0.8520   -1.3890    3.5959 H         1 <0>         0.0989
     38 H9          0.0509   -1.4644    6.1340 H         1 <0>         0.4164
     39 H10         0.0927   -4.2468    6.9715 H         1 <0>         0.4508
     40 H11         0.0502   -0.8487    7.7750 H         1 <0>         0.3916
     41 H12        -0.8221   -1.2460   10.4317 H         1 <0>         0.0977
     42 H13         0.9577   -1.2218   10.4234 H         1 <0>         0.1023
     43 H14         2.1812    0.8187    9.8013 H         1 <0>         0.1769
     44 H15         2.0706    3.2962    9.6895 H         1 <0>         0.1794
     45 H16        -2.0877    0.7375    9.8318 H         1 <0>         0.2085
     46 H17         1.6133    5.5038   10.4688 H         1 <0>         0.0926
     47 H18         1.5682    5.4475    8.6845 H         1 <0>         0.0929
     48 H19         1.0251    7.7381   10.1678 H         1 <0>         0.1029
     49 H20         0.3532    7.4370    8.5316 H         1 <0>         0.0909
     50 H21        -0.9525    6.8944   11.2579 H         1 <0>         0.0889
     51 H22        -1.6750    7.6705    9.8087 H         1 <0>         0.1045
     52 H23        -1.7769    5.5906    8.5999 H         1 <0>         0.0968
     53 H24        -2.1545    5.0482   10.2637 H         1 <0>         0.0853
     54 H25         1.0575   -2.9779   -2.8430 H         1 <0>         0.0775
     55 H26        -0.4710   -3.7737   -2.3971 H         1 <0>         0.0720
     56 H27        -0.4968   -2.2250   -3.2740 H         1 <0>         0.0721
     57 H28        -2.0484    3.0628    9.7366 H         1 <0>         0.4419
@<TRIPOS>BOND
     1    1    2 1
     2    1   30 1
     3    1   31 1
     4    1   32 1
     5    2    7 ar
     6    2    3 ar
     7    3    4 ar
     8    3   33 1
     9    4    5 ar
    10    4   29 1
    11    5    6 ar
    12    5   34 1
    13    6    7 ar
    14    6    8 1
    15    7   35 1
    16    8    9 1
    17    9   10 1
    18    9   36 1
    19    9   37 1
    20   10   11 2
    21   10   12 am
    22   12   13 1
    23   12   38 1
    24   13   14 am
    25   13   39 1
    26   14   15 2
    27   14   16 am
    28   16   17 1
    29   16   40 1
    30   17   18 1
    31   17   41 1
    32   17   42 1
    33   18   23 ar
    34   18   19 ar
    35   19   20 ar
    36   19   43 1
    37   20   21 ar
    38   20   44 1
    39   21   22 ar
    40   21   24 1
    41   22   23 ar
    42   22   57 1
    43   23   45 1
    44   24   28 1
    45   24   25 1
    46   25   26 1
    47   25   46 1
    48   25   47 1
    49   26   27 1
    50   26   48 1
    51   26   49 1
    52   27   28 1
    53   27   50 1
    54   27   51 1
    55   28   52 1
    56   28   53 1
    57   29   54 1
    58   29   55 1
    59   29   56 1
@<TRIPOS>MOLECULE
ZINC56781358
   57    58     0     0     0
SMALL
USER_CHARGES

@<TRIPOS>ATOM
      1 C1         -0.0190    1.4732    0.0094 C.3       1 <0>        -0.0526
      2 N1          0.0025    0.0044    0.0014 N.4       1 <0>        -0.3873
      3 C2          0.7136   -0.4814    1.1915 C.3       1 <0>        -0.0478
      4 C3         -1.3751   -0.5056    0.0120 C.3       1 <0>        -0.0152
      5 C4         -2.0776   -0.1041   -1.2865 C.3       1 <0>        -0.1450
      6 C5         -3.5124   -0.6353   -1.2755 C.3       1 <0>        -0.0828
      7 C6         -4.3013    0.0505   -0.1577 C.3       1 <0>        -0.1360
      8 C7         -5.7272   -0.5087   -0.1274 C.3       1 <0>         0.1273
      9 N2         -6.3213   -0.3617   -1.4631 N.am      1 <0>        -0.6321
     10 C8         -5.5993   -0.9060   -2.6212 C.3       1 <0>         0.1100
     11 C9         -4.1749   -0.3423   -2.6236 C.3       1 <0>        -0.1306
     12 C10        -7.5063    0.2601   -1.6229 C.2       1 <0>         0.7081
     13 O1         -8.1378    0.6245   -0.6499 O.2       1 <0>        -0.5805
     14 N3         -7.9914    0.4781   -2.8614 N.am      1 <0>        -0.7464
     15 C11        -9.2230    1.2510   -3.0402 C.3       1 <0>         0.1416
     16 C12        -9.5510    1.3500   -4.5313 C.3       1 <0>        -0.1001
     17 C13       -10.8180    2.1450   -4.7152 C.ar      1 <0>        -0.0258
     18 C14       -12.0423    1.5032   -4.7193 C.ar      1 <0>        -0.1338
     19 C15       -13.2044    2.2325   -4.8880 C.ar      1 <0>        -0.0137
     20 C16       -13.1423    3.6037   -5.0521 C.ar      1 <0>        -0.6748
     21 C17       -11.9180    4.2456   -5.0471 C.ar      1 <0>        -0.0146
     22 C18       -10.7562    3.5168   -4.8741 C.ar      1 <0>        -0.1350
     23 S1        -14.6235    4.5332   -5.2683 S.o2      1 <0>         2.7005
     24 O2        -14.2582    5.7275   -5.9461 O.2       1 <0>        -0.9612
     25 O3        -15.5964    3.6333   -5.7811 O.2       1 <0>        -0.9605
     26 N4        -15.1430    4.9838   -3.7619 N.pl3     1 <0>        -1.2494
     27 H1          1.0031    1.8516    0.0015 H         1 <0>         0.1247
     28 H2         -0.5467    1.8336   -0.8737 H         1 <0>         0.1238
     29 H3         -0.5296    1.8242    0.9062 H         1 <0>         0.1224
     30 H4          0.2031   -0.1304    2.0883 H         1 <0>         0.1220
     31 H5          0.7296   -1.5713    1.1856 H         1 <0>         0.1236
     32 H6          1.7358   -0.1030    1.1837 H         1 <0>         0.1247
     33 H7         -1.3596   -1.5923    0.0957 H         1 <0>         0.1318
     34 H8         -1.9123   -0.0834    0.8613 H         1 <0>         0.1315
     35 H9         -2.0931    0.9826   -1.3702 H         1 <0>         0.0884
     36 H10        -1.5404   -0.5263   -2.1358 H         1 <0>         0.0893
     37 H11        -3.4998   -1.7115   -1.1033 H         1 <0>         0.0859
     38 H12        -3.8157   -0.1392    0.7995 H         1 <0>         0.0744
     39 H13        -4.3355    1.1242   -0.3424 H         1 <0>         0.0732
     40 H14        -5.7003   -1.5634    0.1465 H         1 <0>         0.0686
     41 H15        -6.3214    0.0447    0.5997 H         1 <0>         0.0992
     42 H16        -5.5620   -1.9930   -2.5507 H         1 <0>         0.0747
     43 H17        -6.1091   -0.6146   -3.5396 H         1 <0>         0.0819
     44 H18        -4.2102    0.7351   -2.7851 H         1 <0>         0.0730
     45 H19        -3.5993   -0.8115   -3.4215 H         1 <0>         0.0818
     46 H20        -7.5250    0.1232   -3.6343 H         1 <0>         0.3959
     47 H21       -10.0422    0.7545   -2.5201 H         1 <0>         0.0739
     48 H22        -9.0864    2.2520   -2.6309 H         1 <0>         0.0714
     49 H23        -8.7318    1.8464   -5.0514 H         1 <0>         0.0859
     50 H24        -9.6876    0.3490   -4.9405 H         1 <0>         0.0873
     51 H25       -12.0908    0.4320   -4.5911 H         1 <0>         0.1360
     52 H26       -14.1609    1.7310   -4.8920 H         1 <0>         0.1463
     53 H27       -11.8694    5.3168   -5.1756 H         1 <0>         0.1457
     54 H28        -9.7999    4.0188   -4.8664 H         1 <0>         0.1346
     55 H29       -14.6375    4.7227   -2.9763 H         1 <0>         0.4166
     56 H30       -15.9528    5.5089   -3.6651 H         1 <0>         0.4229
     57 H31         0.4751   -0.3206   -0.8287 H         1 <0>         0.4266
@<TRIPOS>BOND
     1    1    2 1
     2    1   27 1
     3    1   28 1
     4    1   29 1
     5    2    3 1
     6    2    4 1
     7    2   57 1
     8    3   30 1
     9    3   31 1
    10    3   32 1
    11    4    5 1
    12    4   33 1
    13    4   34 1
    14    5    6 1
    15    5   35 1
    16    5   36 1
    17    6   11 1
    18    6    7 1
    19    6   37 1
    20    7    8 1
    21    7   38 1
    22    7   39 1
    23    8    9 1
    24    8   40 1
    25    8   41 1
    26    9   10 1
    27    9   12 am
    28   10   11 1
    29   10   42 1
    30   10   43 1
    31   11   44 1
    32   11   45 1
    33   12   13 2
    34   12   14 am
    35   14   15 1
    36   14   46 1
    37   15   16 1
    38   15   47 1
    39   15   48 1
    40   16   17 1
    41   16   49 1
    42   16   50 1
    43   17   22 ar
    44   17   18 ar
    45   18   19 ar
    46   18   51 1
    47   19   20 ar
    48   19   52 1
    49   20   21 ar
    50   20   23 1
    51   21   22 ar
    52   21   53 1
    53   22   54 1
    54   23   24 2
    55   23   25 2
    56   23   26 1
    57   26   55 1
    58   26   56 1
@<TRIPOS>MOLECULE
ZINC63376240
   49    52     0     0     0
SMALL
USER_CHARGES

@<TRIPOS>ATOM
      1 C1         -0.0163    1.3482    0.0095 C.ar      1 <0>        -0.1493
      2 C2          1.1658    2.1014    0.0022 C.ar      1 <0>         0.0553
      3 C3          2.3912    1.5352   -0.0125 C.ar      1 <0>        -0.2099
      4 C4          2.5288    0.1198   -0.0218 C.ar      1 <0>         0.3280
      5 N1          3.5868   -0.6543   -0.0369 N.pl3     1 <0>        -0.5846
      6 C5          3.1432   -2.0528   -0.0408 C.3       1 <0>         0.0606
      7 C6          1.6315   -2.0084   -0.0255 C.2       1 <0>         0.0688
      8 C7          1.2951   -0.6984   -0.0144 C.ar      1 <0>        -0.1659
      9 C8          0.0021   -0.0041    0.0020 C.ar      1 <0>        -0.0134
     10 C9          0.6905   -3.1856   -0.0239 C.3       1 <0>        -0.1048
     11 C10         0.4565   -3.6534   -1.4617 C.3       1 <0>         0.1258
     12 N2         -0.4583   -4.7977   -1.4602 N.am      1 <0>        -0.7346
     13 C11        -0.8107   -5.3803   -2.6233 C.2       1 <0>         0.5264
     14 O1         -0.3706   -4.9572   -3.6712 O.2       1 <0>        -0.5180
     15 C12        -1.7517   -6.5574   -2.6217 C.3       1 <0>        -0.1747
     16 C13        -1.9857   -7.0252   -4.0595 C.3       1 <0>         0.1446
     17 H1         -1.0280   -7.2362   -4.5352 H         1 <0>         0.1441
     18 C14        -2.8303   -8.2698   -4.0532 C.2       1 <0>         0.5117
     19 O2         -2.4105   -9.2687   -4.5979 O.2       1 <0>        -0.5022
     20 N3         -4.0236   -8.3071   -3.4676 N.am      1 <0>        -0.6582
     21 C15        -4.6103   -7.2674   -2.7679 C.ar      1 <0>         0.1773
     22 C16        -5.2871   -7.5907   -1.5890 C.ar      1 <0>        -0.1472
     23 C17        -5.9003   -6.6118   -0.8399 C.ar      1 <0>        -0.0664
     24 C18        -5.8526   -5.2891   -1.2501 C.ar      1 <0>        -0.1328
     25 C19        -5.1904   -4.9505   -2.4062 C.ar      1 <0>        -0.0471
     26 C20        -4.5572   -5.9369   -3.1810 C.ar      1 <0>        -0.1519
     27 C21        -3.8604   -5.5017   -4.3971 C.2       1 <0>         0.5571
     28 O3         -4.3904   -4.6445   -5.0775 O.2       1 <0>        -0.5245
     29 N4         -2.6846   -5.9800   -4.8072 N.am      1 <0>        -0.6951
     30 H2         -0.9665    1.8612    0.0259 H         1 <0>         0.1585
     31 H3          1.0933    3.1789    0.0083 H         1 <0>         0.1616
     32 H4          3.2717    2.1606   -0.0175 H         1 <0>         0.1611
     33 H5          3.4952   -2.5561   -0.9413 H         1 <0>         0.1747
     34 H6          3.5129   -2.5667    0.8465 H         1 <0>         0.1750
     35 H7         -0.9210   -0.5647    0.0081 H         1 <0>         0.1606
     36 H8          1.1268   -3.9987    0.5563 H         1 <0>         0.1195
     37 H9         -0.2596   -2.8905    0.4214 H         1 <0>         0.1164
     38 H10         0.0203   -2.8403   -2.0419 H         1 <0>         0.0798
     39 H11         1.4067   -3.9484   -1.9070 H         1 <0>         0.0795
     40 H12        -0.8103   -5.1361   -0.6220 H         1 <0>         0.4073
     41 H13        -1.3155   -7.3705   -2.0415 H         1 <0>         0.1198
     42 H14        -2.7019   -6.2623   -2.1764 H         1 <0>         0.1168
     43 H15        -4.5260   -9.1339   -3.5371 H         1 <0>         0.4170
     44 H16        -5.3299   -8.6192   -1.2622 H         1 <0>         0.1398
     45 H17        -6.4200   -6.8754    0.0694 H         1 <0>         0.1393
     46 H18        -6.3362   -4.5237   -0.6614 H         1 <0>         0.1381
     47 H19        -5.1565   -3.9181   -2.7215 H         1 <0>         0.1387
     48 H20        -2.2849   -5.6299   -5.6187 H         1 <0>         0.4209
     49 H21         4.5087   -0.3528   -0.0446 H         1 <0>         0.4564
@<TRIPOS>BOND
     1    1    9 ar
     2    1    2 ar
     3    1   30 1
     4    2    3 ar
     5    2   31 1
     6    3    4 ar
     7    3   32 1
     8    4    8 ar
     9    4    5 2
    10    5    6 1
    11    5   49 1
    12    6    7 1
    13    6   33 1
    14    6   34 1
    15    7    8 2
    16    7   10 1
    17    8    9 ar
    18    9   35 1
    19   10   11 1
    20   10   36 1
    21   10   37 1
    22   11   12 1
    23   11   38 1
    24   11   39 1
    25   12   13 am
    26   12   40 1
    27   13   14 2
    28   13   15 1
    29   15   16 1
    30   15   41 1
    31   15   42 1
    32   16   17 1
    33   16   29 1
    34   16   18 1
    35   18   19 2
    36   18   20 am
    37   20   21 1
    38   20   43 1
    39   21   26 ar
    40   21   22 ar
    41   22   23 ar
    42   22   44 1
    43   23   24 ar
    44   23   45 1
    45   24   25 ar
    46   24   46 1
    47   25   26 ar
    48   25   47 1
    49   26   27 1
    50   27   28 2
    51   27   29 am
    52   29   48 1
@<TRIPOS>MOLECULE
ZINC01874796
   41    42     0     0     0
SMALL
USER_CHARGES
4-(2-dimethylaminovinyl)-5-nitro-6-[2-(trifluoromethyl)phenyl]-3,6-dihydro-1H-pyrimidin-2-one
@<TRIPOS>ATOM
      1 C1         -2.0603   -0.6801    0.7026 C.3       1 <0>        -0.0393
      2 C2         -3.4877    1.3944    0.3901 C.3       1 <0>        -0.0219
      3 C3         -1.0309    1.5072    0.2185 C.2       1 <0>        -0.0458
      4 C4          0.1737    0.9233    0.2575 C.2       1 <0>        -0.0709
      5 C5          1.3861    1.7222    0.0234 C.2       1 <0>         0.2230
      6 C6          2.5916    1.1511    0.1616 C.2       1 <0>        -0.0863
      7 C7          3.8148    2.0073   -0.0927 C.3       1 <0>         0.2256
      8 H1          4.4228    1.9940    0.8119 H         1 <0>         0.1133
      9 N1          3.5877    3.4131   -0.4644 N.am      1 <0>        -0.6951
     10 C8          2.3200    3.8588   -0.5628 C.2       1 <0>         0.7097
     11 O1          2.1259    5.0193   -0.8690 O.2       1 <0>        -0.5279
     12 N2          1.2669    3.0633   -0.3332 N.am      1 <0>        -0.6512
     13 C9          4.6162    1.3610   -1.1933 C.ar      1 <0>        -0.0918
     14 C10         4.2378    1.5266   -2.5127 C.ar      1 <0>        -0.0900
     15 C11         4.9727    0.9339   -3.5220 C.ar      1 <0>        -0.0796
     16 C12         6.0867    0.1758   -3.2123 C.ar      1 <0>        -0.0946
     17 C13         6.4658    0.0114   -1.8934 C.ar      1 <0>        -0.0605
     18 C14         5.7328    0.6075   -0.8840 C.ar      1 <0>        -0.1622
     19 C15         6.1489    0.4321    0.5538 C.3       1 <0>         0.5006
     20 F1          7.2519   -0.4260    0.6187 F         1 <0>        -0.1625
     21 F2          6.4930    1.6756    1.0947 F         1 <0>        -0.1712
     22 F3          5.0880   -0.1160    1.2827 F         1 <0>        -0.1798
     23 N3          2.7232   -0.2794    0.5483 N.pl3     1 <0>         0.0260
     24 O2          2.8790   -1.1303   -0.3092 O.2       1 <0>        -0.1064
     25 O3          2.6752   -0.5998    1.7225 O.3       1 <0>        -0.1061
     26 H2         -1.9716   -0.8422    1.7768 H         1 <0>         0.1586
     27 H3         -2.9497   -1.1887    0.3306 H         1 <0>         0.1251
     28 H4         -1.1779   -1.0777    0.2011 H         1 <0>         0.1061
     29 H5         -3.6453    1.8369   -0.5935 H         1 <0>         0.1027
     30 H6         -4.2593    0.6485    0.5808 H         1 <0>         0.1335
     31 H7         -3.5389    2.1729    1.1512 H         1 <0>         0.1500
     32 H8         -1.1118    2.5656    0.0196 H         1 <0>         0.1921
     33 H9          0.2546   -0.1352    0.4564 H         1 <0>         0.1679
     34 H10         4.3356    4.0066   -0.6354 H         1 <0>         0.4496
     35 H11         0.3772    3.4401   -0.4193 H         1 <0>         0.4308
     36 H12         3.3676    2.1188   -2.7546 H         1 <0>         0.1277
     37 H13         4.6767    1.0627   -4.5526 H         1 <0>         0.1415
     38 H14         6.6608   -0.2876   -4.0010 H         1 <0>         0.1464
     39 H15         7.3361   -0.5805   -1.6515 H         1 <0>         0.1496
     40 N4         -2.1872    0.6907    0.0802 N.4       1 <0>        -0.3748
     41 H16        -2.2337    0.5067   -0.9289 H         1 <0>         0.4379
@<TRIPOS>BOND
     1    1   26 1
     2    1   27 1
     3    1   28 1
     4    1   40 1
     5    2   29 1
     6    2   30 1
     7    2   31 1
     8    2   40 1
     9    3    4 2
    10    3   32 1
    11    3   40 1
    12    4    5 1
    13    4   33 1
    14    5   12 1
    15    5    6 2
    16    6    7 1
    17    6   23 1
    18    7    8 1
    19    7    9 1
    20    7   13 1
    21    9   10 am
    22    9   34 1
    23   10   11 2
    24   10   12 am
    25   12   35 1
    26   13   18 ar
    27   13   14 ar
    28   14   15 ar
    29   14   36 1
    30   15   16 ar
    31   15   37 1
    32   16   17 ar
    33   16   38 1
    34   17   18 ar
    35   17   39 1
    36   18   19 1
    37   19   20 1
    38   19   21 1
    39   19   22 1
    40   23   24 2
    41   23   25 1
    42   40   41 1
@<TRIPOS>MOLECULE
ZINC32859544
   53    56     0     0     0
SMALL
USER_CHARGES
N-[4-[[(4S)-4-ethyl-2,5-dioxo-4-phenyl-imidazolidin-1-yl]methyl]-2-oxo-chromen-7-yl]acetamide
@<TRIPOS>ATOM
      1 C1          4.1172    1.4754    3.8841 C.3       1 <0>        -0.1674
      2 C2          5.5800    1.0285    3.8459 C.3       1 <0>        -0.1210
      3 C3          5.6873   -0.3028    3.0997 C.3       1 <0>         0.1626
      4 C4          5.0775   -0.1977    1.7159 C.2       1 <0>         0.5342
      5 O1          5.4310    0.5304    0.8133 O.2       1 <0>        -0.4413
      6 N1          4.0595   -1.0806    1.6983 N.am      1 <0>        -0.5889
      7 C5          3.9472   -1.7276    2.8640 C.2       1 <0>         0.7079
      8 O2          3.1056   -2.5754    3.0878 O.2       1 <0>        -0.5301
      9 N2          4.8699   -1.3348    3.7607 N.am      1 <0>        -0.7195
     10 C6          3.1875   -1.3084    0.5433 C.3       1 <0>         0.1313
     11 C7          1.9417   -0.4718    0.6818 C.2       1 <0>         0.1281
     12 C8          1.6952    0.2298    1.8186 C.2       1 <0>        -0.2784
     13 C9          0.5225    1.0056    1.9237 C.2       1 <0>         0.5337
     14 O3          0.3138    1.6297    2.9486 O.3       1 <0>        -0.3432
     15 O4         -0.3696    1.0744    0.9231 O.3       1 <0>        -0.2350
     16 C10        -0.1850    0.4017   -0.2331 C.2       1 <0>         0.1660
     17 C11         0.9642   -0.3928   -0.4057 C.2       1 <0>        -0.1738
     18 C12         1.1598   -1.0922   -1.6021 C.2       1 <0>        -0.0179
     19 C13         0.2334   -1.0020   -2.5999 C.2       1 <0>        -0.1382
     20 C14        -0.9073   -0.2167   -2.4354 C.2       1 <0>         0.2482
     21 C15        -1.1164    0.4832   -1.2564 C.2       1 <0>        -0.1383
     22 N3         -1.8453   -0.1342   -3.4650 N.am      1 <0>        -0.6887
     23 C16        -3.1586   -0.0471   -3.1749 C.2       1 <0>         0.5194
     24 O5         -3.5200    0.0410   -2.0205 O.2       1 <0>        -0.5178
     25 C17        -4.1779   -0.0591   -4.2848 C.3       1 <0>        -0.1790
     26 C18         7.1255   -0.7434    3.0087 C.ar      1 <0>        -0.1103
     27 C19         8.1379    0.1979    3.0045 C.ar      1 <0>        -0.0920
     28 C20         9.4574   -0.2065    2.9259 C.ar      1 <0>        -0.1145
     29 C21         9.7641   -1.5518    2.8414 C.ar      1 <0>        -0.0998
     30 C22         8.7515   -2.4928    2.8399 C.ar      1 <0>        -0.1158
     31 C23         7.4322   -2.0887    2.9238 C.ar      1 <0>        -0.0999
     32 H1          4.0401    2.4326    4.4206 H         1 <0>         0.0795
     33 H2          3.5149    0.7149    4.4026 H         1 <0>         0.0626
     34 H3          3.7449    1.6000    2.8565 H         1 <0>         0.0462
     35 H4          6.1823    1.7890    3.3274 H         1 <0>         0.0981
     36 H5          5.9523    0.9039    4.8735 H         1 <0>         0.1000
     37 H6          5.0888   -1.6290    4.7978 H         1 <0>         0.4800
     38 H7          3.7181   -1.0263   -0.3780 H         1 <0>         0.1512
     39 H8          2.9115   -2.3722    0.4964 H         1 <0>         0.1543
     40 H9          2.3955    0.1931    2.6400 H         1 <0>         0.1847
     41 H10         2.0416   -1.7013   -1.7353 H         1 <0>         0.1625
     42 H11         0.3846   -1.5419   -3.5230 H         1 <0>         0.1612
     43 H12        -2.0020    1.0895   -1.1359 H         1 <0>         0.1731
     44 H13        -1.5130   -0.1402   -4.5136 H         1 <0>         0.4568
     45 H14        -5.1878    0.0201   -3.8560 H         1 <0>         0.1054
     46 H15        -4.0925   -0.9984   -4.8509 H         1 <0>         0.1017
     47 H16        -3.9974    0.7922   -4.9576 H         1 <0>         0.1015
     48 H17         7.8980    1.2491    3.0664 H         1 <0>         0.1307
     49 H18        10.2485    0.5287    2.9267 H         1 <0>         0.1317
     50 H19        10.7949   -1.8676    2.7763 H         1 <0>         0.1300
     51 H20         8.9912   -3.5438    2.7736 H         1 <0>         0.1293
     52 H21         6.6411   -2.8239    2.9226 H         1 <0>         0.1213
     53 H22        -0.5966    2.2394    3.0456 H         1 <0>         0.5178
@<TRIPOS>BOND
     1    1    2 1
     2    1   32 1
     3    1   33 1
     4    1   34 1
     5    2    3 1
     6    2   35 1
     7    2   36 1
     8    3    9 1
     9    3    4 1
    10    3   26 1
    11    4    5 2
    12    4    6 am
    13    6    7 am
    14    6   10 1
    15    7    8 2
    16    7    9 am
    17    9   37 1
    18   10   11 1
    19   10   38 1
    20   10   39 1
    21   11   17 2
    22   11   12 1
    23   12   13 2
    24   12   40 1
    25   13   14 1
    26   13   15 1
    27   14   53 1
    28   15   16 1
    29   16   21 2
    30   16   17 1
    31   17   18 1
    32   18   19 2
    33   18   41 1
    34   19   20 1
    35   19   42 1
    36   20   21 1
    37   20   22 2
    38   21   43 1
    39   22   23 am
    40   22   44 1
    41   23   24 2
    42   23   25 1
    43   25   45 1
    44   25   46 1
    45   25   47 1
    46   26   31 ar
    47   26   27 ar
    48   27   28 ar
    49   27   48 1
    50   28   29 ar
    51   28   49 1
    52   29   30 ar
    53   29   50 1
    54   30   31 ar
    55   30   51 1
    56   31   52 1
@<TRIPOS>MOLECULE
ZINC45845058
   56    59     0     0     0
SMALL
USER_CHARGES

@<TRIPOS>ATOM
      1 C1         -0.0156    1.3780    0.0095 C.ar      1 <0>        -0.1215
      2 C2          1.1703    2.0887    0.0067 C.ar      1 <0>        -0.1027
      3 C3          2.3811    1.4206   -0.0038 C.ar      1 <0>        -0.1403
      4 C4          2.4083    0.0359   -0.0115 C.ar      1 <0>         0.0990
      5 C5          1.2138   -0.6810   -0.0086 C.ar      1 <0>         0.1372
      6 C6          0.0029   -0.0041    0.0019 C.ar      1 <0>        -0.1104
      7 N1          1.2352   -2.0805   -0.0168 N.pl3     1 <0>        -0.6680
      8 C7          1.2479   -2.8357    1.2438 C.3       1 <0>         0.1298
      9 C8          0.0687   -3.8164    1.2395 C.3       1 <0>         0.1124
     10 N2          0.0784   -4.5569   -0.0299 N.am      1 <0>        -0.6204
     11 C9          0.0657   -3.8017   -1.2906 C.3       1 <0>         0.0963
     12 C10         1.2393   -2.8211   -1.2862 C.3       1 <0>         0.1366
     13 C11         0.0991   -5.9045   -0.0378 C.2       1 <0>         0.7101
     14 O1          0.2056   -6.5170    1.0071 O.2       1 <0>        -0.5778
     15 N3          0.0017   -6.5732   -1.2039 N.am      1 <0>        -0.7534
     16 C12        -0.0861   -8.0355   -1.2047 C.3       1 <0>         0.1839
     17 C13        -0.1856   -8.5321   -2.6240 C.ar      1 <0>        -0.1602
     18 C14        -1.4268   -8.6861   -3.2278 C.ar      1 <0>         0.0510
     19 C15        -1.4741   -9.1444   -4.5318 C.ar      1 <0>        -0.1930
     20 C16        -0.2834   -9.4340   -5.1908 C.ar      1 <0>         0.4649
     21 N4          0.8806   -9.2740   -4.5805 N.ar      1 <0>        -0.5060
     22 C17         0.9560   -8.8330   -3.3390 C.ar      1 <0>         0.1667
     23 N5         -0.3162   -9.8959   -6.5015 N.pl3     1 <0>        -0.5938
     24 C18        -1.5294  -10.1147   -7.3027 C.3       1 <0>         0.0993
     25 C19        -1.0796  -10.6528   -8.6774 C.3       1 <0>        -0.1346
     26 C20         0.3240  -11.2422   -8.3776 C.3       1 <0>        -0.1315
     27 C21         0.8599  -10.2413   -7.3204 C.3       1 <0>         0.0770
     28 O2          3.5984   -0.6225   -0.0223 O.3       1 <0>        -0.4925
     29 H1         -0.9587    1.9040    0.0222 H         1 <0>         0.1273
     30 H2          1.1511    3.1685    0.0123 H         1 <0>         0.1292
     31 H3          3.3056    1.9788   -0.0064 H         1 <0>         0.1302
     32 H4         -0.9249   -0.5567    0.0045 H         1 <0>         0.1241
     33 H5          2.1833   -3.3887    1.3296 H         1 <0>         0.0580
     34 H6          1.1485   -2.1478    2.0834 H         1 <0>         0.0837
     35 H7          0.1701   -4.5141    2.0708 H         1 <0>         0.1028
     36 H8         -0.8664   -3.2645    1.3339 H         1 <0>         0.0716
     37 H9          0.1652   -4.4896   -2.1302 H         1 <0>         0.0749
     38 H10        -0.8696   -3.2487   -1.3763 H         1 <0>         0.0752
     39 H11         1.1341   -2.1234   -2.1171 H         1 <0>         0.0813
     40 H12         2.1740   -3.3730   -1.3848 H         1 <0>         0.0552
     41 H13        -0.0104   -6.0861   -2.0427 H         1 <0>         0.3957
     42 H14         0.8046   -8.4532   -0.7353 H         1 <0>         0.0930
     43 H15        -0.9700   -8.3468   -0.6480 H         1 <0>         0.0963
     44 H16        -2.3346   -8.4535   -2.6910 H         1 <0>         0.1760
     45 H17        -2.4224   -9.2761   -5.0316 H         1 <0>         0.1788
     46 H18         1.9234   -8.7100   -2.8749 H         1 <0>         0.2078
     47 H19        -2.1718  -10.8451   -6.8108 H         1 <0>         0.0920
     48 H20        -2.0643   -9.1736   -7.4300 H         1 <0>         0.0923
     49 H21        -1.7578  -11.4310   -9.0276 H         1 <0>         0.1025
     50 H22        -1.0109   -9.8438   -9.4046 H         1 <0>         0.0906
     51 H23         0.2454  -12.2476   -7.9640 H         1 <0>         0.0886
     52 H24         0.9490  -11.2365   -9.2706 H         1 <0>         0.1040
     53 H25         1.2590   -9.3507   -7.8059 H         1 <0>         0.0962
     54 H26         1.6252  -10.7140   -6.7048 H         1 <0>         0.0849
     55 H27         3.9479   -0.8177    0.8580 H         1 <0>         0.3881
     56 H28         1.6982   -9.4824   -5.0591 H         1 <0>         0.4414
@<TRIPOS>BOND
     1    1    6 ar
     2    1    2 ar
     3    1   29 1
     4    2    3 ar
     5    2   30 1
     6    3    4 ar
     7    3   31 1
     8    4    5 ar
     9    4   28 1
    10    5    6 ar
    11    5    7 1
    12    6   32 1
    13    7   12 1
    14    7    8 1
    15    8    9 1
    16    8   33 1
    17    8   34 1
    18    9   10 1
    19    9   35 1
    20    9   36 1
    21   10   11 1
    22   10   13 am
    23   11   12 1
    24   11   37 1
    25   11   38 1
    26   12   39 1
    27   12   40 1
    28   13   14 2
    29   13   15 am
    30   15   16 1
    31   15   41 1
    32   16   17 1
    33   16   42 1
    34   16   43 1
    35   17   22 ar
    36   17   18 ar
    37   18   19 ar
    38   18   44 1
    39   19   20 ar
    40   19   45 1
    41   20   21 ar
    42   20   23 1
    43   21   22 ar
    44   21   56 1
    45   22   46 1
    46   23   27 1
    47   23   24 1
    48   24   25 1
    49   24   47 1
    50   24   48 1
    51   25   26 1
    52   25   49 1
    53   25   50 1
    54   26   27 1
    55   26   51 1
    56   26   52 1
    57   27   53 1
    58   27   54 1
    59   28   55 1
@<TRIPOS>MOLECULE
ZINC61072372
   53    55     0     0     0
SMALL
USER_CHARGES

@<TRIPOS>ATOM
      1 C1         -0.8678    2.5266   -0.8487 C.3       1 <0>        -0.1682
      2 C2         -0.6011    1.0425   -0.5895 C.3       1 <0>         0.2467
      3 C3          0.1892    0.8892    0.6845 C.2       1 <0>         0.0151
      4 C4          1.5135    0.6941    0.7474 C.2       1 <0>        -0.1806
      5 C5          1.8466    0.6029    2.1739 C.ar      1 <0>        -0.0929
      6 C6          3.0293    0.4087    2.8885 C.ar      1 <0>        -0.1060
      7 C7          2.9997    0.3717    4.2548 C.ar      1 <0>        -0.0891
      8 C8          1.8017    0.5256    4.9368 C.ar      1 <0>        -0.1856
      9 C9          0.6185    0.7187    4.2473 C.ar      1 <0>         0.1434
     10 C10         0.6293    0.7601    2.8541 C.ar      1 <0>         0.0289
     11 O1         -0.3310    0.9339    1.9232 O.3       1 <0>        -0.1835
     12 O2         -0.5502    0.8685    4.9256 O.3       1 <0>        -0.3162
     13 C11        -0.4838    0.8158    6.3521 C.3       1 <0>         0.0247
     14 N1         -1.8760    0.3322   -0.4617 N.am      1 <0>        -0.7347
     15 C12        -2.5155   -0.1079   -1.5635 C.2       1 <0>         0.7126
     16 O3         -2.0344    0.0846   -2.6634 O.2       1 <0>        -0.5670
     17 N2         -3.6884   -0.7613   -1.4460 N.am      1 <0>        -0.7626
     18 C13        -4.3836   -1.2397   -2.6435 C.3       1 <0>         0.1156
     19 C14        -5.6123   -2.0521   -2.2296 C.3       1 <0>         0.1243
     20 C15        -6.6024   -1.1493   -1.5400 C.2       1 <0>        -0.1100
     21 C16        -7.7012   -0.6128   -2.1007 C.2       1 <0>        -0.1259
     22 C17        -8.3349    0.1608   -1.1014 C.2       1 <0>        -0.2109
     23 C18        -7.5856    0.0509    0.0103 C.2       1 <0>         0.0107
     24 O4         -6.5406   -0.7485   -0.2597 O.3       1 <0>        -0.1850
     25 N3         -5.2043   -3.1235   -1.3112 N.4       1 <0>        -0.3902
     26 C19        -6.3853   -3.8977   -0.9066 C.3       1 <0>        -0.0472
     27 C20        -4.2462   -4.0089   -1.9866 C.3       1 <0>        -0.0546
     28 H1          0.0808    3.0550   -0.9437 H         1 <0>         0.0801
     29 H2         -1.4394    2.6375   -1.7701 H         1 <0>         0.0760
     30 H3         -1.4348    2.9445   -0.0169 H         1 <0>         0.0654
     31 H4         -0.0341    0.6245   -1.4213 H         1 <0>         0.1249
     32 H5          2.1982    0.6191   -0.0845 H         1 <0>         0.1656
     33 H6          3.9653    0.2874    2.3636 H         1 <0>         0.1338
     34 H7          3.9156    0.2213    4.8071 H         1 <0>         0.1371
     35 H8          1.7927    0.4940    6.0163 H         1 <0>         0.1433
     36 H9         -1.4827    0.9487    6.7676 H         1 <0>         0.1043
     37 H10        -0.0872   -0.1511    6.6619 H         1 <0>         0.0595
     38 H11         0.1692    1.6095    6.7150 H         1 <0>         0.0610
     39 H12        -2.2598    0.1786    0.4157 H         1 <0>         0.4040
     40 H13        -4.0723   -0.9149   -0.5685 H         1 <0>         0.3927
     41 H14        -4.6977   -0.3874   -3.2461 H         1 <0>         0.1160
     42 H15        -3.7115   -1.8691   -3.2267 H         1 <0>         0.1093
     43 H16        -6.0742   -2.4888   -3.1151 H         1 <0>         0.1780
     44 H17        -8.0349   -0.7469   -3.1191 H         1 <0>         0.1630
     45 H18        -9.2457    0.7310   -1.2098 H         1 <0>         0.1643
     46 H19        -7.7915    0.5223    0.9599 H         1 <0>         0.2186
     47 H20        -6.0825   -4.6928   -0.2251 H         1 <0>         0.1293
     48 H21        -7.0962   -3.2408   -0.4055 H         1 <0>         0.1221
     49 H22        -6.8534   -4.3342   -1.7889 H         1 <0>         0.1277
     50 H23        -3.3248   -3.4620   -2.1867 H         1 <0>         0.1271
     51 H24        -4.0292   -4.8646   -1.3473 H         1 <0>         0.1316
     52 H25        -4.6736   -4.3570   -2.9269 H         1 <0>         0.1303
     53 H26        -4.7709   -2.7195   -0.4945 H         1 <0>         0.4233
@<TRIPOS>BOND
     1    1    2 1
     2    1   28 1
     3    1   29 1
     4    1   30 1
     5    2    3 1
     6    2   14 1
     7    2   31 1
     8    3   11 1
     9    3    4 2
    10    4    5 1
    11    4   32 1
    12    5   10 ar
    13    5    6 ar
    14    6    7 ar
    15    6   33 1
    16    7    8 ar
    17    7   34 1
    18    8    9 ar
    19    8   35 1
    20    9   10 ar
    21    9   12 1
    22   10   11 1
    23   12   13 1
    24   13   36 1
    25   13   37 1
    26   13   38 1
    27   14   15 am
    28   14   39 1
    29   15   16 2
    30   15   17 am
    31   17   18 1
    32   17   40 1
    33   18   19 1
    34   18   41 1
    35   18   42 1
    36   19   20 1
    37   19   25 1
    38   19   43 1
    39   20   24 1
    40   20   21 2
    41   21   22 1
    42   21   44 1
    43   22   23 2
    44   22   45 1
    45   23   24 1
    46   23   46 1
    47   25   26 1
    48   25   27 1
    49   25   53 1
    50   26   47 1
    51   26   48 1
    52   26   49 1
    53   27   50 1
    54   27   51 1
    55   27   52 1
@<TRIPOS>MOLECULE
ZINC63806751
   55    58     0     0     0
SMALL
USER_CHARGES

@<TRIPOS>ATOM
      1 C1          0.8566   -0.8564   -0.9190 C.3       1 <0>        -0.1453
      2 C2         -0.0067    0.0192   -0.0085 C.3       1 <0>        -0.0585
      3 C3         -0.0047    1.4568   -0.5322 C.3       1 <0>        -0.1455
      4 C4         -1.4181   -0.5086    0.0050 C.ar      1 <0>        -0.0823
      5 C5         -2.1373   -0.5855   -1.1736 C.ar      1 <0>        -0.0964
      6 C6         -3.4311   -1.0687   -1.1646 C.ar      1 <0>        -0.1153
      7 C7         -4.0095   -1.4781    0.0297 C.ar      1 <0>         0.1327
      8 C8         -3.2845   -1.4000    1.2116 C.ar      1 <0>        -0.1360
      9 C9         -1.9894   -0.9203    1.1951 C.ar      1 <0>        -0.0972
     10 N1         -5.3202   -1.9677    0.0423 N.am      1 <0>        -0.6638
     11 C10        -5.7902   -2.6625   -1.0126 C.2       1 <0>         0.5037
     12 O1         -5.0499   -2.9458   -1.9306 O.2       1 <0>        -0.5140
     13 C11        -7.2356   -3.0872   -1.0516 C.3       1 <0>         0.0989
     14 N2         -7.4953   -3.8222   -2.2920 N.am      1 <0>        -0.5575
     15 C12        -7.8912   -3.2466   -3.4444 C.2       1 <0>         0.5347
     16 O2         -8.0921   -2.0675   -3.6427 O.2       1 <0>        -0.4412
     17 C13        -8.0323   -4.3798   -4.4412 C.3       1 <0>         0.1023
     18 H1         -9.0607   -4.4538   -4.7947 H         1 <0>         0.1413
     19 N3         -7.6650   -5.5745   -3.6616 N.am      1 <0>        -0.7319
     20 C14        -7.3632   -5.1472   -2.4222 C.2       1 <0>         0.7108
     21 O3         -7.0128   -5.8831   -1.5205 O.2       1 <0>        -0.5152
     22 C15        -7.0733   -4.1846   -5.6173 C.3       1 <0>        -0.0934
     23 C16        -7.3197   -5.2548   -6.6493 C.2       1 <0>         0.0593
     24 C17        -8.1035   -5.1603   -7.7476 C.ar      1 <0>        -0.1594
     25 C18        -8.9303   -4.0750   -8.2887 C.ar      1 <0>        -0.0152
     26 C19        -9.6186   -4.2833   -9.4341 C.ar      1 <0>        -0.1473
     27 C20        -9.5627   -5.5069  -10.1155 C.ar      1 <0>         0.0569
     28 C21        -8.8255   -6.5507   -9.6805 C.ar      1 <0>        -0.2099
     29 C22        -8.0609   -6.4425   -8.4862 C.ar      1 <0>         0.3292
     30 N4         -7.2812   -7.2965   -7.8686 N.pl3     1 <0>        -0.5824
     31 C23        -6.7356   -6.6497   -6.6701 C.3       1 <0>         0.0604
     32 H2          1.8775   -0.4747   -0.9287 H         1 <0>         0.0605
     33 H3          0.8552   -1.8806   -0.5459 H         1 <0>         0.0558
     34 H4          0.4520   -0.8378   -1.9310 H         1 <0>         0.0555
     35 H5          0.3979    0.0006    1.0035 H         1 <0>         0.0796
     36 H6         -0.4093    1.4754   -1.5441 H         1 <0>         0.0559
     37 H7         -0.6197    2.0806    0.1165 H         1 <0>         0.0569
     38 H8          1.0162    1.8385   -0.5419 H         1 <0>         0.0605
     39 H9         -1.6868   -0.2670   -2.1021 H         1 <0>         0.1250
     40 H10        -3.9924   -1.1279   -2.0853 H         1 <0>         0.1299
     41 H11        -3.7317   -1.7172    2.1421 H         1 <0>         0.1278
     42 H12        -1.4236   -0.8632    2.1133 H         1 <0>         0.1288
     43 H13        -5.8906   -1.8071    0.8103 H         1 <0>         0.4152
     44 H14        -7.4487   -3.7296   -0.1972 H         1 <0>         0.1372
     45 H15        -7.8747   -2.2052   -1.0114 H         1 <0>         0.1369
     46 H16        -7.6423   -6.4902   -3.9805 H         1 <0>         0.4361
     47 H17        -7.2403   -3.2043   -6.0635 H         1 <0>         0.1374
     48 H18        -6.0449   -4.2519   -5.2625 H         1 <0>         0.1284
     49 H19        -8.9884   -3.1243   -7.7796 H         1 <0>         0.1645
     50 H20       -10.2276   -3.4861   -9.8340 H         1 <0>         0.1598
     51 H21       -10.1330   -5.6194  -11.0257 H         1 <0>         0.1622
     52 H22        -8.8165   -7.4730  -10.2424 H         1 <0>         0.1617
     53 H23        -5.6483   -6.6008   -6.7290 H         1 <0>         0.1787
     54 H24        -7.0398   -7.1978   -5.7784 H         1 <0>         0.1658
     55 H25        -7.0933   -8.2031   -8.1579 H         1 <0>         0.4573
@<TRIPOS>BOND
     1    1    2 1
     2    1   32 1
     3    1   33 1
     4    1   34 1
     5    2    3 1
     6    2    4 1
     7    2   35 1
     8    3   36 1
     9    3   37 1
    10    3   38 1
    11    4    9 ar
    12    4    5 ar
    13    5    6 ar
    14    5   39 1
    15    6    7 ar
    16    6   40 1
    17    7    8 ar
    18    7   10 1
    19    8    9 ar
    20    8   41 1
    21    9   42 1
    22   10   11 am
    23   10   43 1
    24   11   12 2
    25   11   13 1
    26   13   14 1
    27   13   44 1
    28   13   45 1
    29   14   20 am
    30   14   15 am
    31   15   16 2
    32   15   17 1
    33   17   18 1
    34   17   19 1
    35   17   22 1
    36   19   20 am
    37   19   46 1
    38   20   21 2
    39   22   23 1
    40   22   47 1
    41   22   48 1
    42   23   31 1
    43   23   24 2
    44   24   29 ar
    45   24   25 ar
    46   25   26 ar
    47   25   49 1
    48   26   27 ar
    49   26   50 1
    50   27   28 ar
    51   27   51 1
    52   28   29 ar
    53   28   52 1
    54   29   30 2
    55   30   31 1
    56   30   55 1
    57   31   53 1
    58   31   54 1
@<TRIPOS>MOLECULE
ZINC01155598
   50    53     0     0     0
SMALL
USER_CHARGES
3-benzothiazol-2-yl-8-[bis(2-hydroxyethyl)aminomethyl]-7-hydroxy-chromen-2-one
@<TRIPOS>ATOM
      1 C1         10.4103    0.1772    3.4697 C.ar      1 <0>        -0.1118
      2 C2         10.5931   -1.1408    3.8645 C.ar      1 <0>        -0.0752
      3 C3          9.5452   -2.0351    3.7462 C.ar      1 <0>        -0.0733
      4 C4          8.3434   -1.6038    3.2409 C.ar      1 <0>        -0.1277
      5 C5          8.1259   -0.2672    2.8301 C.ar      1 <0>         0.0659
      6 C6          9.2245    0.6146    2.9682 C.ar      1 <0>        -0.0475
      7 N1          6.8946    0.0052    2.3558 N.2       1 <0>        -0.4556
      8 C7          5.9493   -0.9078    2.2766 C.2       1 <0>         0.1729
      9 S1          6.7677   -2.3597    2.9223 S.3       1 <0>         0.0119
     10 C8          4.5656   -0.7669    1.7860 C.2       1 <0>        -0.1147
     11 C9          3.7080   -1.8516    1.7791 C.2       1 <0>         0.0198
     12 C10         2.3869   -1.6729    1.2991 C.ar      1 <0>        -0.1562
     13 C11         1.4919   -2.7544    1.2790 C.ar      1 <0>         0.0006
     14 C12         0.2218   -2.5784    0.8165 C.ar      1 <0>        -0.1707
     15 C13        -0.1965   -1.3286    0.3618 C.ar      1 <0>         0.2120
     16 C14         0.6717   -0.2497    0.3742 C.ar      1 <0>        -0.2066
     17 C15         1.9705   -0.4106    0.8365 C.ar      1 <0>         0.1851
     18 O1          2.8138    0.6445    0.8514 O.3       1 <0>        -0.2744
     19 C16         4.0757    0.5257    1.2968 C.2       1 <0>         0.5206
     20 O2          4.8139    1.4934    1.2945 O.2       1 <0>        -0.3923
     21 C17         0.2085    1.0966   -0.1198 C.3       1 <0>         0.0378
     22 C18        -0.2406    3.3455    0.6567 C.3       1 <0>        -0.0076
     23 C19        -0.5294    4.1855    1.9025 C.3       1 <0>         0.0445
     24 O3          0.5642    4.0748    2.8156 O.3       1 <0>        -0.5771
     25 C20        -1.4947    1.4806    1.5577 C.3       1 <0>        -0.0083
     26 C21        -2.6016    1.8167    0.5564 C.3       1 <0>         0.0585
     27 O4         -2.4307    1.0302   -0.6243 O.3       1 <0>        -0.5578
     28 O5         -1.4641   -1.1680   -0.0960 O.3       1 <0>        -0.4705
     29 H1         11.2308    0.8732    3.5634 H         1 <0>         0.1408
     30 H2         11.5446   -1.4647    4.2597 H         1 <0>         0.1460
     31 H3          9.6708   -3.0641    4.0491 H         1 <0>         0.1397
     32 H4          9.1197    1.6476    2.6711 H         1 <0>         0.1375
     33 H5          4.0387   -2.8168    2.1333 H         1 <0>         0.1633
     34 H6          1.8096   -3.7253    1.6294 H         1 <0>         0.1585
     35 H7         -0.4647   -3.4121    0.8025 H         1 <0>         0.1563
     36 H8          1.0231    1.5884   -0.6515 H         1 <0>         0.1303
     37 H9         -0.6380    0.9647   -0.7938 H         1 <0>         0.1802
     38 H10         0.7205    3.6396    0.2350 H         1 <0>         0.1382
     39 H11        -1.0262    3.5081   -0.0813 H         1 <0>         0.1452
     40 H12        -0.6587    5.2290    1.6152 H         1 <0>         0.0950
     41 H13        -1.4401    3.8248    2.3807 H         1 <0>         0.0697
     42 H14         0.4493    4.5829    3.6303 H         1 <0>         0.4078
     43 H15        -1.4698    0.4036    1.7239 H         1 <0>         0.1387
     44 H16        -1.6916    1.9894    2.5014 H         1 <0>         0.1350
     45 H17        -3.5725    1.5982    1.0012 H         1 <0>         0.0938
     46 H18        -2.5497    2.8746    0.2990 H         1 <0>         0.0676
     47 H19        -3.0521    1.2450   -1.3334 H         1 <0>         0.3976
     48 H20        -1.5793   -1.4051   -1.0263 H         1 <0>         0.4124
     49 N2         -0.1804    1.9204    1.0441 N.4       1 <0>        -0.3874
     50 H21         0.5223    1.8053    1.7838 H         1 <0>         0.4313
@<TRIPOS>BOND
     1    1    6 ar
     2    1    2 ar
     3    1   29 1
     4    2    3 ar
     5    2   30 1
     6    3    4 ar
     7    3   31 1
     8    4    9 1
     9    4    5 ar
    10    5    6 ar
    11    5    7 1
    12    6   32 1
    13    7    8 2
    14    8    9 1
    15    8   10 1
    16   10   19 1
    17   10   11 2
    18   11   12 1
    19   11   33 1
    20   12   17 ar
    21   12   13 ar
    22   13   14 ar
    23   13   34 1
    24   14   15 ar
    25   14   35 1
    26   15   16 ar
    27   15   28 1
    28   16   17 ar
    29   16   21 1
    30   17   18 1
    31   18   19 1
    32   19   20 2
    33   21   36 1
    34   21   37 1
    35   21   49 1
    36   22   23 1
    37   22   38 1
    38   22   39 1
    39   22   49 1
    40   23   24 1
    41   23   40 1
    42   23   41 1
    43   24   42 1
    44   25   26 1
    45   25   43 1
    46   25   44 1
    47   25   49 1
    48   26   27 1
    49   26   45 1
    50   26   46 1
    51   27   47 1
    52   28   48 1
    53   49   50 1
@<TRIPOS>MOLECULE
ZINC06058873
   38    41     0     0     0
SMALL
USER_CHARGES

@<TRIPOS>ATOM
      1 C1         -0.0168    1.3894    0.0097 C.ar      1 <0>        -0.0428
      2 C2          1.1697    2.0935    0.0021 C.ar      1 <0>        -0.1559
      3 C3          2.3788    1.4171   -0.0135 C.ar      1 <0>         0.1366
      4 C4          2.4023    0.0318   -0.0212 C.ar      1 <0>        -0.1530
      5 C5          1.2206   -0.6803   -0.0133 C.ar      1 <0>        -0.0472
      6 C6          0.0021   -0.0041    0.0020 C.ar      1 <0>        -0.0661
      7 C7         -1.2712   -0.7654    0.0106 C.2       1 <0>         0.1791
      8 C8         -1.3959   -2.1696    0.0099 C.2       1 <0>        -0.1202
      9 C9         -2.7123   -2.4696    0.0193 C.2       1 <0>        -0.0056
     10 N1         -3.4065   -1.2993    0.0257 N.pl3     1 <0>        -0.3200
     11 N2         -2.4813   -0.2474    0.0258 N.2       1 <0>        -0.2079
     12 C10        -4.7887   -1.1704    0.0361 C.2       1 <0>         0.7020
     13 N3         -5.5029   -2.2459    0.0455 N.2       1 <0>        -0.3246
     14 N4         -6.8759   -2.3251   -0.0583 N.pl3     1 <0>        -0.4045
     15 C11        -7.7468   -1.5812    0.5463 C.cat     1 <0>         0.5025
     16 N5         -9.0876   -1.7920    0.3273 N.pl3     1 <0>        -0.7570
     17 C12        -7.3085   -0.4848    1.4898 C.3       1 <0>        -0.0383
     18 C13        -6.4406    0.4693    0.7048 C.2       1 <0>         0.2699
     19 N6         -5.3272    0.1023    0.0415 N.pl3     1 <0>        -0.3821
     20 N7         -4.8508    1.2544   -0.5930 N.2       1 <0>        -0.2349
     21 C14        -5.6538    2.2304   -0.2493 C.2       1 <0>         0.2421
     22 N8         -6.6101    1.7503    0.5365 N.2       1 <0>        -0.4616
     23 C15        -3.3071   -3.8542    0.0217 C.3       1 <0>         0.5494
     24 F1         -2.2830   -4.8015    0.1282 F         1 <0>        -0.1491
     25 F2         -4.1786   -3.9856    1.1082 F         1 <0>        -0.1574
     26 F3         -4.0117   -4.0612   -1.1690 F         1 <0>        -0.1596
     27 F4          3.5383    2.1104   -0.0217 F         1 <0>        -0.1260
     28 H1         -0.9588    1.9174    0.0260 H         1 <0>         0.1419
     29 H2          1.1560    3.1733    0.0081 H         1 <0>         0.1480
     30 H3          3.3470   -0.4914   -0.0337 H         1 <0>         0.1509
     31 H4          1.2398   -1.7601   -0.0192 H         1 <0>         0.1447
     32 H5         -0.5823   -2.8799    0.0028 H         1 <0>         0.1972
     33 H6         -9.3759   -2.4941   -0.2767 H         1 <0>         0.4361
     34 H7         -8.1812    0.0414    1.8766 H         1 <0>         0.1825
     35 H8         -6.7374   -0.9121    2.3140 H         1 <0>         0.1682
     36 H9         -5.5571    3.2602   -0.5600 H         1 <0>         0.2508
     37 H10        -9.7453   -1.2386    0.7768 H         1 <0>         0.4531
     38 H11        -7.2268   -3.0112   -0.6474 H         1 <0>         0.4584
@<TRIPOS>BOND
     1    1    6 ar
     2    1    2 ar
     3    1   28 1
     4    2    3 ar
     5    2   29 1
     6    3    4 ar
     7    3   27 1
     8    4    5 ar
     9    4   30 1
    10    5    6 ar
    11    5   31 1
    12    6    7 1
    13    7   11 2
    14    7    8 1
    15    8    9 2
    16    8   32 1
    17    9   10 1
    18    9   23 1
    19   10   11 1
    20   10   12 1
    21   12   19 1
    22   12   13 2
    23   13   14 1
    24   14   15 2
    25   14   38 1
    26   15   16 1
    27   15   17 1
    28   16   33 1
    29   16   37 1
    30   17   18 1
    31   17   34 1
    32   17   35 1
    33   18   22 2
    34   18   19 1
    35   19   20 1
    36   20   21 2
    37   21   22 1
    38   21   36 1
    39   23   24 1
    40   23   25 1
    41   23   26 1
@<TRIPOS>MOLECULE
ZINC04809629
   48    51     0     0     0
SMALL
USER_CHARGES

@<TRIPOS>ATOM
      1 C1          2.1218    0.6133   -1.5482 C.ar      1 <0>        -0.0879
      2 C2          3.1179    1.2687   -0.8170 C.ar      1 <0>        -0.1139
      3 C3          3.5026    0.8127    0.4087 C.ar      1 <0>        -0.0538
      4 C4          2.8862   -0.3247    0.9304 C.ar      1 <0>        -0.1916
      5 C5          1.8352   -1.0255    0.1723 C.ar      1 <0>         0.1153
      6 C6          1.4909   -0.4990   -1.0831 C.ar      1 <0>        -0.1364
      7 N1          1.2198   -2.1281    0.6473 N.am      1 <0>        -0.4710
      8 C7          1.4111   -2.7754    1.8154 C.ar      1 <0>         0.1284
      9 C8          0.6610   -3.9202    2.1300 C.ar      1 <0>        -0.1774
     10 C9          0.8665   -4.5618    3.3122 C.ar      1 <0>        -0.0872
     11 C10         1.8100   -4.1230    4.2471 C.ar      1 <0>        -0.1169
     12 C11         2.5731   -3.0191    4.0076 C.ar      1 <0>        -0.0509
     13 C12         2.4011   -2.3258    2.8095 C.ar      1 <0>        -0.1819
     14 S1          3.2874   -0.9622    2.4228 S.3       1 <0>         0.1549
     15 C13         0.2796   -2.6582   -0.1599 C.2       1 <0>         0.5580
     16 O1         -0.4064   -1.9323   -0.8521 O.2       1 <0>        -0.4436
     17 C14         0.0838   -4.1173   -0.2032 C.ar      1 <0>        -0.1664
     18 C15         1.1860   -4.9759   -0.1174 C.ar      1 <0>         0.0250
     19 C16         1.0007   -6.3283   -0.1578 C.ar      1 <0>        -0.1907
     20 C17        -0.2836   -6.8537   -0.2843 C.ar      1 <0>         0.2978
     21 C18        -1.3826   -6.0022   -0.3704 C.ar      1 <0>        -0.0648
     22 C19        -1.2052   -4.6486   -0.3243 C.ar      1 <0>         0.0254
     23 N2         -2.7449   -6.5650   -0.5052 N.pl3     1 <0>        -0.0171
     24 O2         -2.9473   -7.6268   -1.2576 O.2       1 <0>        -0.1913
     25 O3         -3.7547   -6.0040    0.1273 O.3       1 <0>        -0.1222
     26 N3         -0.4683   -8.2298   -0.3251 N.pl3     1 <0>        -0.7214
     27 C20         0.6768   -9.1279   -0.1569 C.3       1 <0>         0.0868
     28 C21         0.2029  -10.5802   -0.2429 C.3       1 <0>        -0.0213
     29 N4          1.3512  -11.4807   -0.0741 N.4       1 <0>        -0.6306
     30 H1          1.8404    1.0064   -2.5140 H         1 <0>         0.1326
     31 H2          3.5892    2.1486   -1.2296 H         1 <0>         0.1368
     32 H3          4.2730    1.3238    0.9670 H         1 <0>         0.1457
     33 H4          0.7263   -0.9759   -1.6784 H         1 <0>         0.1633
     34 H5         -0.0779   -4.2905    1.4349 H         1 <0>         0.1516
     35 H6          0.2802   -5.4406    3.5368 H         1 <0>         0.1246
     36 H7          1.9354   -4.6664    5.1719 H         1 <0>         0.1347
     37 H8          3.2995   -2.6864    4.7343 H         1 <0>         0.1465
     38 H9          2.1818   -4.5693   -0.0197 H         1 <0>         0.1523
     39 H10         1.8507   -6.9913   -0.0920 H         1 <0>         0.1561
     40 H11        -2.0583   -3.9891   -0.3859 H         1 <0>         0.1687
     41 H12        -1.3555   -8.5961   -0.4651 H         1 <0>         0.4228
     42 H13         1.4071   -8.9369   -0.9432 H         1 <0>         0.0965
     43 H14         1.1361   -8.9527    0.8160 H         1 <0>         0.0955
     44 H15        -0.5273  -10.7713    0.5434 H         1 <0>         0.1448
     45 H16        -0.2564  -10.7554   -1.2157 H         1 <0>         0.1478
     46 H17         2.0272  -11.3038   -0.8020 H         1 <0>         0.4396
     47 H18         1.7764  -11.3185    0.8264 H         1 <0>         0.4391
     48 H19         1.0387  -12.4384   -0.1309 H         1 <0>         0.4479
@<TRIPOS>BOND
     1    1    6 ar
     2    1    2 ar
     3    1   30 1
     4    2    3 ar
     5    2   31 1
     6    3    4 ar
     7    3   32 1
     8    4   14 1
     9    4    5 ar
    10    5    6 ar
    11    5    7 1
    12    6   33 1
    13    7    8 1
    14    7   15 am
    15    8   13 ar
    16    8    9 ar
    17    9   10 ar
    18    9   34 1
    19   10   11 ar
    20   10   35 1
    21   11   12 ar
    22   11   36 1
    23   12   13 ar
    24   12   37 1
    25   13   14 1
    26   15   16 2
    27   15   17 1
    28   17   22 ar
    29   17   18 ar
    30   18   19 ar
    31   18   38 1
    32   19   20 ar
    33   19   39 1
    34   20   21 ar
    35   20   26 1
    36   21   22 ar
    37   21   23 1
    38   22   40 1
    39   23   24 2
    40   23   25 1
    41   26   27 1
    42   26   41 1
    43   27   28 1
    44   27   42 1
    45   27   43 1
    46   28   29 1
    47   28   44 1
    48   28   45 1
    49   29   46 1
    50   29   47 1
    51   29   48 1
@<TRIPOS>MOLECULE
ZINC50441485
   37    37     0     0     0
SMALL
USER_CHARGES

@<TRIPOS>ATOM
      1 C1         -0.0187    1.5258    0.0104 C.3       1 <0>        -0.1858
      2 C2          0.0021   -0.0041    0.0020 C.3       1 <0>        -0.0236
      3 N1         -1.3761   -0.5125    0.0124 N.4       1 <0>        -0.5007
      4 C3         -1.3562   -1.9814    0.0044 C.3       1 <0>         0.0428
      5 C4         -0.6162   -2.4882    1.2439 C.3       1 <0>        -0.1680
      6 C5         -2.7915   -2.5110    0.0152 C.3       1 <0>         0.0442
      7 O1         -2.7722   -3.9398    0.0074 O.3       1 <0>        -0.2870
      8 C6         -3.9748   -4.5734    0.0155 C.ar      1 <0>         0.1827
      9 C7         -4.5811   -4.8987    1.2206 C.ar      1 <0>        -0.1088
     10 C8         -5.8044   -5.5425    1.2259 C.ar      1 <0>         0.0009
     11 C9         -6.4236   -5.8628    0.0319 C.ar      1 <0>        -0.0301
     12 C10        -5.8219   -5.5399   -1.1703 C.ar      1 <0>         0.0007
     13 C11        -4.6013   -4.8909   -1.1814 C.ar      1 <0>        -0.1095
     14 Br1        -3.7828   -4.4427   -2.8261 Br        1 <0>         0.0189
     15 N2         -7.7329   -6.5531    0.0407 N.pl3     1 <0>         0.0252
     16 O2         -8.2599   -6.8363    1.0913 O.2       1 <0>        -0.1278
     17 O3         -8.2754   -6.8337   -1.0027 O.3       1 <0>        -0.1286
     18 Br2        -3.7344   -4.4622    2.8542 Br        1 <0>         0.0205
     19 C12        -0.6508   -2.4674   -1.2355 C.2       1 <0>         0.5144
     20 O4          0.0276   -3.4718   -1.1929 O.2       1 <0>        -0.4512
     21 N3         -0.7738   -1.7858   -2.3917 N.am      1 <0>        -0.8524
     22 H1          1.0039    1.9031    0.0027 H         1 <0>         0.1140
     23 H2         -0.5459    1.8868   -0.8726 H         1 <0>         0.0834
     24 H3         -0.5289    1.8773    0.9072 H         1 <0>         0.0859
     25 H4          0.5123   -0.3556   -0.8948 H         1 <0>         0.1341
     26 H5          0.5293   -0.3651    0.8851 H         1 <0>         0.1446
     27 H6         -1.8484   -0.1871    0.8426 H         1 <0>         0.4380
     28 H7         -1.1264   -2.1367    2.1407 H         1 <0>         0.0960
     29 H8         -0.6014   -3.5781    1.2379 H         1 <0>         0.1290
     30 H9          0.4064   -2.1109    1.2362 H         1 <0>         0.0950
     31 H10        -3.3017   -2.1594    0.9120 H         1 <0>         0.1027
     32 H11        -3.3187   -2.1499   -0.8678 H         1 <0>         0.0908
     33 H12        -6.2766   -5.7959    2.1635 H         1 <0>         0.1818
     34 H13        -6.3078   -5.7912   -2.1014 H         1 <0>         0.1812
     35 H14        -1.3163   -0.9825   -2.4258 H         1 <0>         0.3942
     36 H15        -0.3198   -2.0986   -3.1898 H         1 <0>         0.4286
     37 H16        -1.8641   -0.1783   -0.8050 H         1 <0>         0.4240
@<TRIPOS>BOND
     1    1    2 1
     2    1   22 1
     3    1   23 1
     4    1   24 1
     5    2    3 1
     6    2   25 1
     7    2   26 1
     8    3    4 1
     9    3   27 1
    10    3   37 1
    11    4    5 1
    12    4    6 1
    13    4   19 1
    14    5   28 1
    15    5   29 1
    16    5   30 1
    17    6    7 1
    18    6   31 1
    19    6   32 1
    20    7    8 1
    21    8   13 ar
    22    8    9 ar
    23    9   10 ar
    24    9   18 1
    25   10   11 ar
    26   10   33 1
    27   11   12 ar
    28   11   15 1
    29   12   13 ar
    30   12   34 1
    31   13   14 1
    32   15   16 2
    33   15   17 1
    34   19   20 2
    35   19   21 am
    36   21   35 1
    37   21   36 1
@<TRIPOS>MOLECULE
ZINC63557207
   59    62     0     0     0
SMALL
USER_CHARGES

@<TRIPOS>ATOM
      1 C1         -1.4897   -0.2931   -0.1080 C.3       1 <0>        -0.1476
      2 C2          0.0197   -0.1071    0.0587 C.3       1 <0>        -0.0959
      3 C3          0.5010   -0.9048    1.2723 C.3       1 <0>        -0.1518
      4 C4          0.7370   -0.6066   -1.1970 C.3       1 <0>        -0.0882
      5 C5          2.2304   -0.2918   -1.0907 C.3       1 <0>         0.0974
      6 H1          2.6733   -0.7697   -0.2169 H         1 <0>         0.0842
      7 N1          2.9581   -0.6640   -2.3447 N.3       1 <0>        -0.4828
      8 N2          4.2098    0.0787   -2.4337 N.3       1 <0>        -0.4991
      9 C6          4.0057    1.5365   -2.2061 C.3       1 <0>         0.3733
     10 H2          3.7852    2.0516   -3.1411 H         1 <0>         0.1499
     11 S1          2.5371    1.5281   -1.0912 S.3       1 <0>        -0.2805
     12 N3          5.1672    2.1329   -1.5416 N.am      1 <0>        -0.7230
     13 C7          6.2890    2.3862   -2.2442 C.2       1 <0>         0.5312
     14 O1          6.3371    2.1205   -3.4266 O.2       1 <0>        -0.5030
     15 C8          7.4838    2.9997   -1.5607 C.3       1 <0>        -0.1230
     16 H3          7.8305    2.3673   -0.7434 H         1 <0>         0.1245
     17 C9          7.1618    4.4262   -1.0582 C.3       1 <0>        -0.1481
     18 C10         8.4423    5.1983   -1.2880 C.2       1 <0>         0.5252
     19 O2          8.7089    6.2678   -0.7820 O.2       1 <0>        -0.5138
     20 N4          9.2419    4.5263   -2.1342 N.am      1 <0>        -0.6229
     21 C11         8.6206    3.2699   -2.5712 C.3       1 <0>         0.1160
     22 C12        10.5640    4.9878   -2.5646 C.3       1 <0>         0.1342
     23 C13        11.6274    4.4607   -1.5991 C.3       1 <0>        -0.1151
     24 C14        12.9874    4.9354   -2.0418 C.2       1 <0>         0.0767
     25 C15        13.6514    6.0271   -1.5989 C.ar      1 <0>        -0.1529
     26 C16        13.3185    7.0598   -0.6104 C.ar      1 <0>        -0.0594
     27 C17        14.2067    8.0544   -0.3754 C.ar      1 <0>         0.0804
     28 C18        15.4348    8.1214   -1.0525 C.ar      1 <0>         0.0217
     29 C19        15.8094    7.2093   -1.9738 C.ar      1 <0>        -0.1759
     30 C20        14.9527    6.1211   -2.2986 C.ar      1 <0>         0.3250
     31 N5         15.0877    5.1261   -3.1414 N.pl3     1 <0>        -0.5773
     32 C21        13.8887    4.2839   -3.0666 C.3       1 <0>         0.0603
     33 F1         13.9033    9.0069    0.5335 F         1 <0>        -0.1109
     34 H4         -1.8382    0.3024   -0.9519 H         1 <0>         0.0587
     35 H5         -1.7081   -1.3452   -0.2910 H         1 <0>         0.0573
     36 H6         -1.9982    0.0310    0.8000 H         1 <0>         0.0587
     37 H7          0.2413    0.9498    0.2075 H         1 <0>         0.0750
     38 H8          0.2794   -1.9617    1.1235 H         1 <0>         0.0578
     39 H9          1.5763   -0.7723    1.3911 H         1 <0>         0.0493
     40 H10        -0.0100   -0.5489    2.1669 H         1 <0>         0.0595
     41 H11         0.5985   -1.6838   -1.2903 H         1 <0>         0.0827
     42 H12         0.3225   -0.1097   -2.0742 H         1 <0>         0.0891
     43 H13         3.1241   -1.6584   -2.3849 H         1 <0>         0.3627
     44 H14         4.8975   -0.2940   -1.7963 H         1 <0>         0.3248
     45 H15         5.1287    2.3455   -0.5960 H         1 <0>         0.4114
     46 H16         6.3461    4.8595   -1.6369 H         1 <0>         0.1164
     47 H17         6.9115    4.4096    0.0025 H         1 <0>         0.1185
     48 H18         9.3488    2.4592   -2.5453 H         1 <0>         0.0905
     49 H19         8.2134    3.3802   -3.5763 H         1 <0>         0.1001
     50 H20        10.7691    4.6170   -3.5688 H         1 <0>         0.0944
     51 H21        10.5849    6.0776   -2.5684 H         1 <0>         0.0962
     52 H22        11.4222    4.8316   -0.5949 H         1 <0>         0.1142
     53 H23        11.6065    3.3709   -1.5952 H         1 <0>         0.1171
     54 H24        12.3790    7.0270   -0.0788 H         1 <0>         0.1733
     55 H25        16.1069    8.9361   -0.8270 H         1 <0>         0.1746
     56 H26        16.7651    7.3062   -2.4674 H         1 <0>         0.1725
     57 H27        14.1541    3.2761   -2.7470 H         1 <0>         0.1792
     58 H28        13.3932    4.2526   -4.0370 H         1 <0>         0.1783
     59 H29        15.8538    4.9706   -3.7156 H         1 <0>         0.4583
@<TRIPOS>BOND
     1    1    2 1
     2    1   34 1
     3    1   35 1
     4    1   36 1
     5    2    3 1
     6    2    4 1
     7    2   37 1
     8    3   38 1
     9    3   39 1
    10    3   40 1
    11    4    5 1
    12    4   41 1
    13    4   42 1
    14    5    6 1
    15    5   11 1
    16    5    7 1
    17    7    8 1
    18    7   43 1
    19    8    9 1
    20    8   44 1
    21    9   10 1
    22    9   11 1
    23    9   12 1
    24   12   13 am
    25   12   45 1
    26   13   14 2
    27   13   15 1
    28   15   16 1
    29   15   21 1
    30   15   17 1
    31   17   18 1
    32   17   46 1
    33   17   47 1
    34   18   19 2
    35   18   20 am
    36   20   21 1
    37   20   22 1
    38   21   48 1
    39   21   49 1
    40   22   23 1
    41   22   50 1
    42   22   51 1
    43   23   24 1
    44   23   52 1
    45   23   53 1
    46   24   32 1
    47   24   25 2
    48   25   30 ar
    49   25   26 ar
    50   26   27 ar
    51   26   54 1
    52   27   28 ar
    53   27   33 1
    54   28   29 ar
    55   28   55 1
    56   29   30 ar
    57   29   56 1
    58   30   31 2
    59   31   32 1
    60   31   59 1
    61   32   57 1
    62   32   58 1
@<TRIPOS>MOLECULE
ZINC67539026
   47    50     0     0     0
SMALL
USER_CHARGES

@<TRIPOS>ATOM
      1 C1         -0.0187    1.5258    0.0104 C.3       1 <0>        -0.1250
      2 C2          1.4167    2.0553   -0.0004 C.3       1 <0>        -0.1189
      3 C3          2.1328    1.5619   -1.2592 C.3       1 <0>        -0.1085
      4 C4          2.1536    0.0321   -1.2676 C.3       1 <0>         0.0075
      5 C5          0.7182   -0.4975   -1.2568 C.3       1 <0>        -0.1085
      6 C6          0.0021   -0.0041    0.0020 C.3       1 <0>        -0.1190
      7 C7          2.8590   -0.4539   -2.5075 C.2       1 <0>         0.0587
      8 N1          2.5719   -0.2511   -3.7776 N.2       1 <0>        -0.2302
      9 N2          3.3124   -0.7625   -4.6646 N.2       1 <0>        -0.2887
     10 C8          4.3652   -1.4940   -4.3564 C.2       1 <0>         0.2213
     11 S1          4.3260   -1.4618   -2.6712 S.3       1 <0>         0.1024
     12 N3          5.2738   -2.1229   -5.2007 N.am      1 <0>        -0.6068
     13 C9          5.1331   -2.0219   -6.5372 C.2       1 <0>         0.7029
     14 O1          4.2119   -1.3809   -7.0048 O.2       1 <0>        -0.4857
     15 N4          6.0137   -2.6315   -7.3555 N.am      1 <0>        -0.6231
     16 C10         5.8688   -2.5275   -8.7319 C.2       1 <0>         0.0964
     17 C11         6.6677   -3.0868   -9.7174 C.2       1 <0>        -0.1389
     18 C12         6.2987   -2.8262  -11.0943 C.2       1 <0>        -0.0319
     19 C13         5.1982   -2.0521  -11.2380 C.2       1 <0>        -0.3401
     20 S2          4.6810   -1.7011   -9.5854 S.3       1 <0>         0.4308
     21 C14         4.5885   -1.6165  -12.5330 C.3       1 <0>         0.1054
     22 N5          5.5752   -1.8364  -13.6066 N.4       1 <0>        -0.5052
     23 C15         6.0956   -3.2074  -13.5254 C.3       1 <0>        -0.0024
     24 C16         7.0337   -3.3464  -12.3216 C.3       1 <0>        -0.0896
     25 C17         7.8087   -3.8873   -9.3887 C.1       1 <0>         0.2493
     26 N6          8.7139   -4.5222   -9.1279 N.1       1 <0>        -0.3934
     27 H1         -0.5289    1.8773    0.9072 H         1 <0>         0.0672
     28 H2         -0.5459    1.8868   -0.8726 H         1 <0>         0.0659
     29 H3          1.4019    3.1452    0.0056 H         1 <0>         0.0708
     30 H4          1.9439    1.6943    0.8826 H         1 <0>         0.0663
     31 H5          1.6057    1.9230   -2.1423 H         1 <0>         0.0773
     32 H6          3.1554    1.9392   -1.2670 H         1 <0>         0.0670
     33 H7          2.6808   -0.3290   -0.3846 H         1 <0>         0.1024
     34 H8          0.1910   -0.1364   -2.1398 H         1 <0>         0.0773
     35 H9          0.7330   -1.5874   -1.2628 H         1 <0>         0.0671
     36 H10         0.5293   -0.3651    0.8851 H         1 <0>         0.0663
     37 H11        -1.0205   -0.3814    0.0098 H         1 <0>         0.0709
     38 H12         6.0088   -2.6343   -4.8276 H         1 <0>         0.4331
     39 H13         6.7486   -3.1429   -6.9824 H         1 <0>         0.4261
     40 H14         3.6917   -2.2031  -12.7325 H         1 <0>         0.1476
     41 H15         4.3320   -0.5584  -12.4807 H         1 <0>         0.1487
     42 H16         5.1329   -1.6975  -14.5028 H         1 <0>         0.4395
     43 H17         5.2640   -3.9037  -13.4176 H         1 <0>         0.1371
     44 H18         6.6431   -3.4406  -14.4387 H         1 <0>         0.1428
     45 H19         7.9365   -2.7587  -12.4875 H         1 <0>         0.1107
     46 H20         7.2962   -4.3945  -12.1776 H         1 <0>         0.1243
     47 H21         6.3359   -1.1817  -13.5029 H         1 <0>         0.4328
@<TRIPOS>BOND
     1    1    6 1
     2    1    2 1
     3    1   27 1
     4    1   28 1
     5    2    3 1
     6    2   29 1
     7    2   30 1
     8    3    4 1
     9    3   31 1
    10    3   32 1
    11    4    5 1
    12    4    7 1
    13    4   33 1
    14    5    6 1
    15    5   34 1
    16    5   35 1
    17    6   36 1
    18    6   37 1
    19    7   11 1
    20    7    8 2
    21    8    9 1
    22    9   10 2
    23   10   11 1
    24   10   12 1
    25   12   13 am
    26   12   38 1
    27   13   14 2
    28   13   15 am
    29   15   16 1
    30   15   39 1
    31   16   20 1
    32   16   17 2
    33   17   18 1
    34   17   25 1
    35   18   24 1
    36   18   19 2
    37   19   20 1
    38   19   21 1
    39   21   22 1
    40   21   40 1
    41   21   41 1
    42   22   23 1
    43   22   42 1
    44   22   47 1
    45   23   24 1
    46   23   43 1
    47   23   44 1
    48   24   45 1
    49   24   46 1
    50   25   26 3
@<TRIPOS>MOLECULE
ZINC09484410
   48    51     0     0     0
SMALL
USER_CHARGES
3-[4-(benzothiazol-2-ylsulfanylmethyl)-6-oxo-1H-pyrimidin-2-yl]-1-(p-tolyl)guanidine
@<TRIPOS>ATOM
      1 C1          1.7233    4.0357   -0.0837 C.3       1 <0>        -0.1294
      2 C2          2.1976    2.6054   -0.1039 C.ar      1 <0>        -0.0634
      3 C3          3.4373    2.2822    0.4167 C.ar      1 <0>        -0.0773
      4 C4          3.8746    0.9724    0.4000 C.ar      1 <0>        -0.0989
      5 C5          3.0679   -0.0208   -0.1403 C.ar      1 <0>         0.0935
      6 C6          1.8234    0.3073   -0.6623 C.ar      1 <0>        -0.1854
      7 C7          1.3920    1.6190   -0.6426 C.ar      1 <0>        -0.0779
      8 N1          3.5081   -1.3483   -0.1591 N.pl3     1 <0>        -0.5883
      9 C8          2.6077   -2.3743    0.0158 C.cat     1 <0>         0.7397
     10 N2          3.0562   -3.6750    0.1239 N.pl3     1 <0>        -0.6180
     11 C9          4.4036   -3.9332    0.1958 C.2       1 <0>         0.6296
     12 N3          4.8393   -5.2213    0.1692 N.am      1 <0>        -0.6242
     13 H1          4.2020   -5.9493    0.0998 H         1 <0>         0.4295
     14 C10         6.1622   -5.4832    0.2348 C.2       1 <0>         0.5410
     15 O1          6.5707   -6.6325    0.2077 O.2       1 <0>        -0.4789
     16 C11         7.0600   -4.4054    0.3403 C.2       1 <0>        -0.2307
     17 C12         6.5638   -3.1349    0.3675 C.2       1 <0>         0.2045
     18 N4          5.2504   -2.9293    0.2948 N.2       1 <0>        -0.5761
     19 C13         7.5039   -1.9623    0.4795 C.3       1 <0>        -0.1043
     20 S1          7.6387   -1.1414   -1.1280 S.3       1 <0>         0.0820
     21 C14         8.7639    0.1512   -0.7181 C.2       1 <0>         0.0971
     22 N5          9.2525    1.0949   -1.4915 N.2       1 <0>        -0.4642
     23 C15        10.1148    2.0304   -1.0372 C.ar      1 <0>         0.0732
     24 C16        10.7099    3.0917   -1.7574 C.ar      1 <0>        -0.0521
     25 C17        11.5708    3.9611   -1.1397 C.ar      1 <0>        -0.1077
     26 C18        11.8891    3.8336    0.2045 C.ar      1 <0>        -0.0791
     27 C19        11.3252    2.8063    0.9393 C.ar      1 <0>        -0.0708
     28 C20        10.4616    1.9317    0.3294 C.ar      1 <0>        -0.1269
     29 S2          9.5249    0.5172    0.8570 S.3       1 <0>         0.0005
     30 H2          2.0364    4.5353   -1.0005 H         1 <0>         0.0845
     31 H3          0.6359    4.0570   -0.0115 H         1 <0>         0.0773
     32 H4          2.1546    4.5494    0.7755 H         1 <0>         0.0775
     33 H5          4.0621    3.0542    0.8407 H         1 <0>         0.1450
     34 H6          4.8427    0.7205    0.8071 H         1 <0>         0.1412
     35 H7          1.1939   -0.4627   -1.0835 H         1 <0>         0.1508
     36 H8          0.4242    1.8747   -1.0484 H         1 <0>         0.1461
     37 H9          4.4479   -1.5457   -0.2955 H         1 <0>         0.4513
     38 H10         0.6157   -2.7773    0.1323 H         1 <0>         0.4463
     39 H11         2.4201   -4.4069    0.1490 H         1 <0>         0.4577
     40 H12         8.1240   -4.5809    0.3991 H         1 <0>         0.1823
     41 H13         7.1191   -1.2572    1.2163 H         1 <0>         0.1282
     42 H14         8.4873   -2.3136    0.7918 H         1 <0>         0.1346
     43 H15        10.4836    3.2189   -2.8057 H         1 <0>         0.1380
     44 H16        12.0117    4.7637   -1.7126 H         1 <0>         0.1417
     45 H17        12.5697    4.5294    0.6725 H         1 <0>         0.1460
     46 H18        11.5630    2.6935    1.9868 H         1 <0>         0.1386
     47 N6          1.3262   -2.0474    0.0782 N.pl3     1 <0>        -0.7888
     48 H19         1.0476   -1.0592    0.0720 H         1 <0>         0.4650
@<TRIPOS>BOND
     1    1    2 1
     2    1   30 1
     3    1   31 1
     4    1   32 1
     5    2    7 ar
     6    2    3 ar
     7    3    4 ar
     8    3   33 1
     9    4    5 ar
    10    4   34 1
    11    5    6 ar
    12    5    8 1
    13    6    7 ar
    14    6   35 1
    15    7   36 1
    16    8    9 1
    17    8   37 1
    18    9   10 1
    19    9   47 2
    20   10   11 1
    21   10   39 1
    22   11   18 2
    23   11   12 1
    24   12   13 1
    25   12   14 am
    26   14   15 2
    27   14   16 1
    28   16   17 2
    29   16   40 1
    30   17   18 1
    31   17   19 1
    32   19   20 1
    33   19   41 1
    34   19   42 1
    35   20   21 1
    36   21   29 1
    37   21   22 2
    38   22   23 1
    39   23   28 ar
    40   23   24 ar
    41   24   25 ar
    42   24   43 1
    43   25   26 ar
    44   25   44 1
    45   26   27 ar
    46   26   45 1
    47   27   28 ar
    48   27   46 1
    49   28   29 1
    50   38   47 1
    51   47   48 1
@<TRIPOS>MOLECULE
ZINC20755997
   51    54     0     0     0
SMALL
USER_CHARGES
3-[[4,6-bis(ethylamino)-1,3,5-triazin-2-yl]amino]-2-sulfanyl-5,6,7,8-tetrahydrobenzothiopheno[3,2-e]pyrimidin-4-one
@<TRIPOS>ATOM
      1 C1         -0.7527    1.5927   -1.2315 C.3       1 <0>        -0.1750
      2 C2         -0.0127    1.0858    0.0080 C.3       1 <0>         0.1187
      3 N1         -0.6984    1.5583    1.2133 N.pl3     1 <0>        -0.6720
      4 C3         -0.2105    1.2246    2.4604 C.ar      1 <0>         0.6973
      5 N2         -0.8296    1.6578    3.5542 N.ar      1 <0>        -0.6519
      6 C4         -0.3625    1.3322    4.7554 C.ar      1 <0>         0.6956
      7 N3          0.7297    0.5820    4.8629 N.ar      1 <0>        -0.6154
      8 C5          1.3517    0.1530    3.7692 C.ar      1 <0>         0.7170
      9 N4          0.8817    0.4745    2.5680 N.ar      1 <0>        -0.6091
     10 N5          2.4856   -0.6258    3.8808 N.pl3     1 <0>        -0.4408
     11 N6          2.9809   -0.9645    5.1468 N.am      1 <0>        -0.3045
     12 C6          4.0848   -0.3498    5.6099 C.2       1 <0>         0.5699
     13 O1          4.6508    0.4941    4.9364 O.2       1 <0>        -0.4680
     14 C7          4.5818   -0.6965    6.9062 C.2       1 <0>        -0.2116
     15 C8          5.7509   -0.1571    7.6034 C.2       1 <0>        -0.0408
     16 C9          6.0178   -0.6562    8.8271 C.2       1 <0>        -0.1503
     17 S1          4.7479   -1.8573    9.1216 S.3       1 <0>         0.2078
     18 C10         3.8587   -1.6847    7.5951 C.2       1 <0>         0.0626
     19 N7          2.7780   -2.2579    7.0789 N.pl3     1 <0>        -0.5107
     20 C11         2.3379   -1.9158    5.8847 C.2       1 <0>         0.5412
     21 S2          0.9002   -2.6975    5.2316 S.2       1 <0>        -0.5389
     22 C12         7.1457   -0.2745    9.7368 C.3       1 <0>        -0.0451
     23 C13         8.1813    0.5125    8.9210 C.3       1 <0>        -0.1175
     24 C14         7.4524    1.5828    8.1034 C.3       1 <0>        -0.1248
     25 C15         6.6396    0.9215    6.9899 C.3       1 <0>        -0.0630
     26 N8         -1.0083    1.7776    5.8909 N.pl3     1 <0>        -0.6734
     27 C16        -0.4900    1.4238    7.2147 C.3       1 <0>         0.1227
     28 C17        -1.3836    2.0393    8.2934 C.3       1 <0>        -0.1736
     29 H1         -0.2379    1.2379   -2.1365 H         1 <0>         0.0932
     30 H2         -0.7675    2.6926   -1.2254 H         1 <0>         0.0693
     31 H3         -1.7847    1.2120   -1.2237 H         1 <0>         0.0699
     32 H4          0.0021   -0.0141    0.0019 H         1 <0>         0.0911
     33 H5          1.0193    1.4665    0.0002 H         1 <0>         0.0900
     34 H6         -1.6021    2.1791    1.1243 H         1 <0>         0.4536
     35 H7          3.0004   -0.9806    2.9758 H         1 <0>         0.4994
     36 H8          6.7603    0.3489   10.5571 H         1 <0>         0.0945
     37 H9          7.6056   -1.1834   10.1520 H         1 <0>         0.0926
     38 H10         8.9003    0.9891    9.6035 H         1 <0>         0.0838
     39 H11         8.7151   -0.1734    8.2468 H         1 <0>         0.0737
     40 H12         6.7754    2.1483    8.7605 H         1 <0>         0.0692
     41 H13         8.1883    2.2683    7.6579 H         1 <0>         0.0786
     42 H14         7.3180    0.4634    6.2551 H         1 <0>         0.0867
     43 H15         6.0115    1.6736    6.4900 H         1 <0>         0.0874
     44 H16        -1.9121    2.3982    5.8020 H         1 <0>         0.4532
     45 H17        -0.4827    0.3294    7.3251 H         1 <0>         0.0869
     46 H18         0.5343    1.8100    7.3227 H         1 <0>         0.0822
     47 H19        -0.9945    1.7737    9.2874 H         1 <0>         0.0914
     48 H20        -2.4079    1.6530    8.1854 H         1 <0>         0.0716
     49 H21        -1.3909    3.1337    8.1829 H         1 <0>         0.0702
     50 H22        -1.7284    2.2857    3.4653 H         1 <0>         0.4699
     51 H23         2.2385   -3.0284    7.6493 H         1 <0>         0.4956
@<TRIPOS>BOND
     1    1    2 1
     2    1   29 1
     3    1   30 1
     4    1   31 1
     5    2    3 1
     6    2   32 1
     7    2   33 1
     8    3    4 1
     9    3   34 1
    10    4    9 ar
    11    4    5 ar
    12    5    6 ar
    13    5   50 1
    14    6    7 ar
    15    6   26 1
    16    7    8 ar
    17    8    9 ar
    18    8   10 1
    19   10   11 1
    20   10   35 1
    21   11   20 1
    22   11   12 am
    23   12   13 2
    24   12   14 1
    25   14   18 2
    26   14   15 1
    27   15   25 1
    28   15   16 2
    29   16   17 1
    30   16   22 1
    31   17   18 1
    32   18   19 1
    33   19   20 1
    34   19   51 1
    35   20   21 2
    36   22   23 1
    37   22   36 1
    38   22   37 1
    39   23   24 1
    40   23   38 1
    41   23   39 1
    42   24   25 1
    43   24   40 1
    44   24   41 1
    45   25   42 1
    46   25   43 1
    47   26   27 1
    48   26   44 1
    49   27   28 1
    50   27   45 1
    51   27   46 1
    52   28   47 1
    53   28   48 1
    54   28   49 1
@<TRIPOS>MOLECULE
ZINC39444246
   52    54     0     0     0
SMALL
USER_CHARGES

@<TRIPOS>ATOM
      1 C1         -2.0084   -3.2831   -2.6415 C.3       1 <0>        -0.1452
      2 C2         -1.7874   -2.6964   -1.2459 C.3       1 <0>         0.0997
      3 C3         -0.3230   -2.2802   -1.0936 C.3       1 <0>        -0.1656
      4 C4         -2.6874   -1.4733   -1.0585 C.3       1 <0>        -0.1423
      5 N1         -2.1173   -3.7069   -0.2320 N.3       1 <0>        -0.3437
      6 C5         -1.9850   -3.1521    1.1314 C.3       1 <0>         0.1817
      7 H1         -2.9421   -3.2015    1.6507 H         1 <0>         0.1871
      8 N2         -0.9848   -3.9966    1.8251 N.3       1 <0>        -0.4399
      9 N3         -1.0174   -5.2702    1.0891 N.4       1 <0>        -0.2566
     10 N4         -1.1983   -4.8462   -0.3075 N.3       1 <0>        -0.3423
     11 S1         -1.4067   -1.4346    1.0527 S.3       1 <0>        -0.0545
     12 C6          0.1993   -1.4732    1.8952 C.3       1 <0>        -0.2125
     13 C7         -0.0149   -1.4440    3.3866 C.2       1 <0>         0.5001
     14 O1         -1.1403   -1.4013    3.8368 O.2       1 <0>        -0.5065
     15 N5          1.0440   -1.4653    4.2201 N.am      1 <0>        -0.7226
     16 C8          0.8357   -1.4369    5.6699 C.3       1 <0>         0.1228
     17 C9          2.1902   -1.4695    6.3805 C.3       1 <0>        -0.0498
     18 C10         1.9759   -1.4403    7.8719 C.2       1 <0>        -0.1834
     19 C11         1.7131   -2.5927    8.7372 C.ar      1 <0>        -0.1004
     20 C12         1.5836   -3.9645    8.5135 C.ar      1 <0>        -0.0764
     21 C13         1.3315   -4.8022    9.5634 C.ar      1 <0>        -0.1421
     22 C14         1.2025   -4.3000   10.8508 C.ar      1 <0>        -0.0976
     23 C15         1.3266   -2.9495   11.0941 C.ar      1 <0>        -0.1256
     24 C16         1.5837   -2.0786   10.0405 C.ar      1 <0>         0.0952
     25 N6          1.7572   -0.7151    9.9584 N.pl3     1 <0>        -0.5925
     26 C17         1.9955   -0.3540    8.6602 C.2       1 <0>         0.0687
     27 H2         -1.3673   -4.1545   -2.7750 H         1 <0>         0.0636
     28 H3         -3.0517   -3.5796   -2.7500 H         1 <0>         0.0738
     29 H4         -1.7637   -2.5333   -3.3938 H         1 <0>         0.0855
     30 H5         -0.2034   -1.2467   -1.4186 H         1 <0>         0.0864
     31 H6         -0.0269   -2.3689   -0.0483 H         1 <0>         0.0515
     32 H7          0.3044   -2.9284   -1.7053 H         1 <0>         0.0641
     33 H8         -3.6826   -1.7977   -0.7544 H         1 <0>         0.0834
     34 H9         -2.2654   -0.8261   -0.2896 H         1 <0>         0.0882
     35 H10        -2.7553   -0.9248   -1.9980 H         1 <0>         0.1042
     36 H11        -0.0674   -3.5784    1.7837 H         1 <0>         0.3882
     37 H12        -0.1468   -5.7681    1.2001 H         1 <0>         0.4590
     38 H13        -1.5908   -5.5910   -0.8637 H         1 <0>         0.4149
     39 H14         0.7309   -2.3848    1.6223 H         1 <0>         0.1018
     40 H15         0.7878   -0.6060    1.5956 H         1 <0>         0.1537
     41 H16         1.9440   -1.4994    3.8600 H         1 <0>         0.4023
     42 H17         0.3041   -0.5253    5.9428 H         1 <0>         0.0729
     43 H18         0.2472   -2.3041    5.9695 H         1 <0>         0.0729
     44 H19         2.7218   -2.3811    6.1076 H         1 <0>         0.0756
     45 H20         2.7787   -0.6022    6.0809 H         1 <0>         0.0773
     46 H21         1.6819   -4.3623    7.5143 H         1 <0>         0.1161
     47 H22         1.2314   -5.8635    9.3898 H         1 <0>         0.1224
     48 H23         1.0026   -4.9746   11.6702 H         1 <0>         0.1277
     49 H24         1.2243   -2.5684   12.0994 H         1 <0>         0.1225
     50 H25         2.1706    0.6560    8.3199 H         1 <0>         0.1710
     51 H26         1.7201   -0.1024   10.7094 H         1 <0>         0.4196
     52 H27        -1.7950   -5.8371    1.3927 H         1 <0>         0.4455
@<TRIPOS>BOND
     1    1    2 1
     2    1   27 1
     3    1   28 1
     4    1   29 1
     5    2    3 1
     6    2    4 1
     7    2    5 1
     8    3   30 1
     9    3   31 1
    10    3   32 1
    11    4   33 1
    12    4   34 1
    13    4   35 1
    14    5   10 1
    15    5    6 1
    16    6    7 1
    17    6    8 1
    18    6   11 1
    19    8    9 1
    20    8   36 1
    21    9   10 1
    22    9   37 1
    23    9   52 1
    24   10   38 1
    25   11   12 1
    26   12   13 1
    27   12   39 1
    28   12   40 1
    29   13   14 2
    30   13   15 am
    31   15   16 1
    32   15   41 1
    33   16   17 1
    34   16   42 1
    35   16   43 1
    36   17   44 1
    37   17   45 1
    38   17   18 1
    39   18   19 1
    40   18   26 2
    41   19   20 ar
    42   19   24 ar
    43   20   21 ar
    44   20   46 1
    45   21   22 ar
    46   21   47 1
    47   22   23 ar
    48   22   48 1
    49   23   24 ar
    50   23   49 1
    51   24   25 1
    52   25   51 1
    53   25   26 1
    54   26   50 1
@<TRIPOS>MOLECULE
ZINC40824878
   56    59     0     0     0
SMALL
USER_CHARGES

@<TRIPOS>ATOM
      1 C1         -0.6394   -1.1305   -0.5091 C.3       1 <0>        -0.0991
      2 C2         -0.6419   -2.4490    0.2208 C.2       1 <0>        -0.0245
      3 C3         -0.8011   -3.7209   -0.3424 C.2       1 <0>        -0.1892
      4 C4         -0.7406   -4.6362    0.6815 C.2       1 <0>         0.1025
      5 O1         -0.5509   -3.9699    1.8182 O.3       1 <0>        -0.1374
      6 C5         -0.4833   -2.6432    1.5647 C.2       1 <0>        -0.0832
      7 C6         -0.2775   -1.5891    2.5644 C.2       1 <0>         0.6027
      8 O2         -0.2363   -0.4229    2.2193 O.2       1 <0>        -0.4833
      9 N1         -0.1340   -1.9125    3.8649 N.am      1 <0>        -0.5050
     10 N2          0.0626   -0.9060    4.8195 N.pl3     1 <0>        -0.3756
     11 C7         -1.0086   -0.1028    5.2184 C.ar      1 <0>         0.2057
     12 C8         -0.7832    1.0139    6.0136 C.ar      1 <0>        -0.1670
     13 C9         -1.8444    1.8057    6.4061 C.ar      1 <0>        -0.0751
     14 C10        -3.1303    1.4881    6.0085 C.ar      1 <0>        -0.1573
     15 C11        -3.3583    0.3770    5.2173 C.ar      1 <0>        -0.0796
     16 C12        -2.3011   -0.4156    4.8161 C.ar      1 <0>        -0.1703
     17 C13         1.3299   -0.7057    5.3725 C.ar      1 <0>         0.1526
     18 C14         2.4244   -0.4888    4.5448 C.ar      1 <0>        -0.1238
     19 C15         3.6756   -0.2911    5.0947 C.ar      1 <0>        -0.1028
     20 C16         3.8398   -0.3089    6.4678 C.ar      1 <0>        -0.1197
     21 C17         2.7525   -0.5249    7.2946 C.ar      1 <0>        -0.1000
     22 C18         1.4974   -0.7171    6.7516 C.ar      1 <0>        -0.1230
     23 C19        -0.8781   -6.1216    0.4632 C.3       1 <0>        -0.0565
     24 C20        -1.5791   -6.3765   -0.8739 C.3       1 <0>        -0.1113
     25 C21        -0.8688   -5.6292   -2.0075 C.3       1 <0>        -0.1292
     26 C22        -1.0010   -4.1354   -1.7493 C.2       1 <0>         0.2575
     27 N3         -1.2697   -3.2872   -2.6930 N.2       1 <0>        -0.2831
     28 N4         -1.4493   -3.7361   -4.0080 N.pl3     1 <0>        -0.5591
     29 C23        -1.7329   -2.8408   -5.0042 C.cat     1 <0>         0.7718
     30 N5         -1.9037   -3.2677   -6.2550 N.pl3     1 <0>        -0.7938
     31 N6         -1.8383   -1.5423   -4.7230 N.pl3     1 <0>        -0.7749
     32 H1          0.3779   -0.8868   -0.8154 H         1 <0>         0.0821
     33 H2         -1.2769   -1.2019   -1.3903 H         1 <0>         0.0727
     34 H3         -1.0173   -0.3494    0.1505 H         1 <0>         0.0951
     35 H4         -0.1668   -2.8421    4.1400 H         1 <0>         0.4206
     36 H5          0.2208    1.2623    6.3247 H         1 <0>         0.1283
     37 H6         -1.6699    2.6737    7.0245 H         1 <0>         0.1285
     38 H7         -3.9584    2.1091    6.3169 H         1 <0>         0.1241
     39 H8         -4.3639    0.1315    4.9092 H         1 <0>         0.1236
     40 H9         -2.4793   -1.2804    4.1942 H         1 <0>         0.1136
     41 H10         2.2969   -0.4752    3.4724 H         1 <0>         0.1207
     42 H11         4.5269   -0.1229    4.4518 H         1 <0>         0.1279
     43 H12         4.8194   -0.1540    6.8952 H         1 <0>         0.1289
     44 H13         2.8844   -0.5388    8.3665 H         1 <0>         0.1323
     45 H14         0.6480   -0.8810    7.3980 H         1 <0>         0.1300
     46 H15         0.1107   -6.5800    0.4485 H         1 <0>         0.1139
     47 H16        -1.4678   -6.5547    1.2712 H         1 <0>         0.1116
     48 H17        -1.5690   -7.4455   -1.0867 H         1 <0>         0.1054
     49 H18        -2.6117   -6.0335   -0.8092 H         1 <0>         0.0814
     50 H19         0.1850   -5.9071   -2.0273 H         1 <0>         0.1167
     51 H20        -1.3336   -5.8801   -2.9609 H         1 <0>         0.0839
     52 H21        -1.3726   -4.6811   -4.2126 H         1 <0>         0.4164
     53 H22        -1.8270   -4.2128   -6.4597 H         1 <0>         0.4401
     54 H23        -1.7140   -1.2316   -3.8126 H         1 <0>         0.4482
     55 H24        -2.0392   -0.9080   -5.4288 H         1 <0>         0.4395
     56 H25        -2.1047   -2.6334   -6.9608 H         1 <0>         0.4457
@<TRIPOS>BOND
     1    1    2 1
     2    1   32 1
     3    1   33 1
     4    1   34 1
     5    2    6 2
     6    2    3 1
     7    3   26 1
     8    3    4 2
     9    4    5 1
    10    4   23 1
    11    5    6 1
    12    6    7 1
    13    7    8 2
    14    7    9 am
    15    9   10 1
    16    9   35 1
    17   10   11 1
    18   10   17 1
    19   11   16 ar
    20   11   12 ar
    21   12   13 ar
    22   12   36 1
    23   13   14 ar
    24   13   37 1
    25   14   15 ar
    26   14   38 1
    27   15   16 ar
    28   15   39 1
    29   16   40 1
    30   17   22 ar
    31   17   18 ar
    32   18   19 ar
    33   18   41 1
    34   19   20 ar
    35   19   42 1
    36   20   21 ar
    37   20   43 1
    38   21   22 ar
    39   21   44 1
    40   22   45 1
    41   23   24 1
    42   23   46 1
    43   23   47 1
    44   24   25 1
    45   24   48 1
    46   24   49 1
    47   25   26 1
    48   25   50 1
    49   25   51 1
    50   26   27 2
    51   27   28 1
    52   28   29 1
    53   28   52 1
    54   29   30 2
    55   29   31 1
    56   30   53 1
    57   30   56 1
    58   31   54 1
    59   31   55 1
@<TRIPOS>MOLECULE
ZINC64073400
   57    60     0     0     0
SMALL
USER_CHARGES

@<TRIPOS>ATOM
      1 C1         -0.0705    1.4513   -0.4116 C.ar      1 <0>        -0.1493
      2 C2          1.1190    2.1920   -0.3743 C.ar      1 <0>         0.0538
      3 C3          2.3294    1.6196   -0.2033 C.ar      1 <0>        -0.2086
      4 C4          2.4430    0.2101   -0.0517 C.ar      1 <0>         0.3276
      5 N1          3.4834   -0.5681    0.1232 N.pl3     1 <0>        -0.5852
      6 C5          3.0186   -1.9564    0.2182 C.3       1 <0>         0.0611
      7 C6          1.5143   -1.9010    0.0722 C.2       1 <0>         0.0803
      8 C7          1.2011   -0.5949   -0.0874 C.ar      1 <0>        -0.1732
      9 C8         -0.0747    0.1056   -0.2770 C.ar      1 <0>        -0.0137
     10 C9          0.5580   -3.0654    0.0982 C.3       1 <0>        -0.1125
     11 C10         0.4643   -3.6798   -1.2998 C.3       1 <0>         0.1654
     12 H1          0.1895   -2.9077   -2.0184 H         1 <0>         0.1252
     13 C11        -0.5821   -4.7643   -1.3029 C.2       1 <0>         0.4944
     14 O1         -0.2497   -5.9281   -1.2231 O.2       1 <0>        -0.4634
     15 N2         -1.8874   -4.4410   -1.3942 N.am      1 <0>        -0.6698
     16 C12        -2.8529   -5.4503   -1.5084 C.ar      1 <0>         0.1309
     17 C13        -4.1094   -5.2761   -0.9433 C.ar      1 <0>        -0.1209
     18 C14        -5.0608   -6.2700   -1.0556 C.ar      1 <0>        -0.0815
     19 C15        -4.7612   -7.4447   -1.7346 C.ar      1 <0>        -0.0877
     20 C16        -3.5040   -7.6184   -2.3003 C.ar      1 <0>        -0.1159
     21 C17        -2.5549   -6.6220   -2.1917 C.ar      1 <0>        -0.0967
     22 S1         -5.9750   -8.7139   -1.8777 S.3       1 <0>        -0.1076
     23 C18        -5.1388  -10.0161   -2.8240 C.3       1 <0>        -0.0789
     24 C19        -4.8832   -9.5385   -4.2684 C.3       1 <0>        -0.1232
     25 C20        -5.1089  -10.8040   -5.1325 C.3       1 <0>        -0.1234
     26 C21        -6.3047  -11.4907   -4.4271 C.3       1 <0>        -0.1235
     27 C22        -6.0425  -11.2574   -2.9249 C.3       1 <0>        -0.1032
     28 N3          1.7613   -4.2518   -1.6698 N.am      1 <0>        -0.7455
     29 C23         2.3048   -5.2307   -0.9196 C.2       1 <0>         0.7043
     30 O2          1.7186   -5.6392    0.0642 O.2       1 <0>        -0.5538
     31 N4          3.4980   -5.7569   -1.2599 N.am      1 <0>        -0.8639
     32 H2         -1.0084    1.9693   -0.5469 H         1 <0>         0.1586
     33 H3          1.0648    3.2647   -0.4875 H         1 <0>         0.1610
     34 H4          3.2165    2.2353   -0.1819 H         1 <0>         0.1604
     35 H5          3.4522   -2.5536   -0.5839 H         1 <0>         0.1664
     36 H6          3.2867   -2.3768    1.1875 H         1 <0>         0.1741
     37 H7         -1.0031   -0.4453   -0.3084 H         1 <0>         0.1611
     38 H8          0.9185   -3.8160    0.8016 H         1 <0>         0.1433
     39 H9         -0.4275   -2.7193    0.4098 H         1 <0>         0.1230
     40 H10        -2.1584   -3.5097   -1.3809 H         1 <0>         0.4077
     41 H11        -4.3421   -4.3630   -0.4156 H         1 <0>         0.1313
     42 H12        -6.0377   -6.1347   -0.6154 H         1 <0>         0.1344
     43 H13        -3.2706   -8.5314   -2.8278 H         1 <0>         0.1314
     44 H14        -1.5790   -6.7552   -2.6349 H         1 <0>         0.1329
     45 H15        -4.1958  -10.2788   -2.3445 H         1 <0>         0.0944
     46 H16        -5.5924   -8.7576   -4.5431 H         1 <0>         0.0819
     47 H17        -3.8594   -9.1805   -4.3764 H         1 <0>         0.0706
     48 H18        -5.3683  -10.5319   -6.1556 H         1 <0>         0.0731
     49 H19        -4.2286  -11.4465   -5.1139 H         1 <0>         0.0700
     50 H20        -7.2433  -11.0251   -4.7274 H         1 <0>         0.0714
     51 H21        -6.3181  -12.5574   -4.6508 H         1 <0>         0.0730
     52 H22        -5.5378  -12.1226   -2.4951 H         1 <0>         0.0803
     53 H23        -6.9836  -11.0773   -2.4052 H         1 <0>         0.0762
     54 H24         2.2290   -3.9259   -2.4546 H         1 <0>         0.4062
     55 H25         3.9657   -5.4310   -2.0448 H         1 <0>         0.3975
     56 H26         3.8891   -6.4615   -0.7200 H         1 <0>         0.4225
     57 H27         4.4063   -0.2750    0.1798 H         1 <0>         0.4555
@<TRIPOS>BOND
     1    1    9 ar
     2    1    2 ar
     3    1   32 1
     4    2    3 ar
     5    2   33 1
     6    3    4 ar
     7    3   34 1
     8    4    8 ar
     9    4    5 2
    10    5    6 1
    11    5   57 1
    12    6    7 1
    13    6   35 1
    14    6   36 1
    15    7    8 2
    16    7   10 1
    17    8    9 ar
    18    9   37 1
    19   10   11 1
    20   10   38 1
    21   10   39 1
    22   11   12 1
    23   11   13 1
    24   11   28 1
    25   13   14 2
    26   13   15 am
    27   15   16 1
    28   15   40 1
    29   16   21 ar
    30   16   17 ar
    31   17   18 ar
    32   17   41 1
    33   18   19 ar
    34   18   42 1
    35   19   20 ar
    36   19   22 1
    37   20   21 ar
    38   20   43 1
    39   21   44 1
    40   22   23 1
    41   23   27 1
    42   23   24 1
    43   23   45 1
    44   24   25 1
    45   24   46 1
    46   24   47 1
    47   25   26 1
    48   25   48 1
    49   25   49 1
    50   26   27 1
    51   26   50 1
    52   26   51 1
    53   27   52 1
    54   27   53 1
    55   28   29 am
    56   28   54 1
    57   29   30 2
    58   29   31 am
    59   31   55 1
    60   31   56 1
@<TRIPOS>MOLECULE
ZINC18165067
   18    19     0     0     0
SMALL
USER_CHARGES
8-chloro-2-methylsulfanyl-1,7-dihydropurin-6-one
@<TRIPOS>ATOM
      1 C1         -1.7759   -0.3426    0.0172 C.3       1 <0>        -0.1365
      2 S1          0.0021   -0.0041    0.0020 S.3       1 <0>         0.0105
      3 C2         -0.0218    1.7577    0.0117 C.2       1 <0>         0.3742
      4 N1          1.1621    2.4364    0.0040 N.am      1 <0>        -0.6190
      5 H1          1.9995    1.9468   -0.0066 H         1 <0>         0.4314
      6 C3          1.1725    3.7880    0.0108 C.2       1 <0>         0.5838
      7 O1          2.2254    4.4043    0.0036 O.2       1 <0>        -0.5215
      8 C4         -0.0567    4.4661    0.0257 C.2       1 <0>        -0.1359
      9 C5         -1.2429    3.7244    0.0331 C.2       1 <0>         0.3148
     10 N2         -1.1785    2.3796    0.0207 N.2       1 <0>        -0.4916
     11 N3         -2.2563    4.6067    0.0470 N.2       1 <0>        -0.4507
     12 C6         -1.7835    5.8258    0.0487 C.2       1 <0>         0.3250
     13 N4         -0.4337    5.7966    0.0359 N.pl3     1 <0>        -0.5191
     14 H2          0.1779    6.5877    0.0341 H         1 <0>         0.4454
     15 Cl1        -2.7487    7.2686    0.0645 Cl        1 <0>         0.0716
     16 H3         -2.2374    0.0990   -0.8661 H         1 <0>         0.1014
     17 H4         -1.9407   -1.4201    0.0130 H         1 <0>         0.1149
     18 H5         -2.2204    0.0894    0.9138 H         1 <0>         0.1012
@<TRIPOS>BOND
     1    1    2 1
     2    1   16 1
     3    1   17 1
     4    1   18 1
     5    2    3 1
     6    3   10 2
     7    3    4 1
     8    4    5 1
     9    4    6 am
    10    6    7 2
    11    6    8 1
    12    8   13 1
    13    8    9 2
    14    9   10 1
    15    9   11 1
    16   11   12 2
    17   12   13 1
    18   12   15 1
    19   13   14 1
@<TRIPOS>MOLECULE
ZINC36827961
   25    27     0     0     0
SMALL
USER_CHARGES

@<TRIPOS>ATOM
      1 C1         -0.0052    1.3747    0.1639 C.ar      1 <0>        -0.1773
      2 C2          1.1689    2.0901    0.0023 C.ar      1 <0>        -0.0478
      3 C3          2.3713    1.4305   -0.1678 C.ar      1 <0>        -0.1975
      4 C4          2.4080    0.0440   -0.1775 C.ar      1 <0>         0.2648
      5 C5          1.2207   -0.6836   -0.0136 C.ar      1 <0>        -0.1148
      6 C6          0.0136   -0.0048    0.1571 C.ar      1 <0>        -0.0503
      7 C7          1.2474   -2.1603   -0.0222 C.2       1 <0>         0.2066
      8 N1          2.0766   -2.9316    0.6507 N.2       1 <0>        -0.2308
      9 N2          1.8224   -4.1698    0.4136 N.2       1 <0>        -0.2610
     10 C8          0.8076   -4.2671   -0.4319 C.2       1 <0>         0.3466
     11 N3          0.4115   -2.9844   -0.7264 N.pl3     1 <0>        -0.4257
     12 C9         -0.6303   -2.7676   -1.5783 C.2       1 <0>         0.1267
     13 C10        -1.2661   -3.8344   -2.1230 C.2       1 <0>        -0.2001
     14 C11        -0.8377   -5.1301   -1.7978 C.2       1 <0>         0.1905
     15 N4          0.1735   -5.3110   -0.9806 N.2       1 <0>        -0.4305
     16 N5          3.6206   -0.6236   -0.3499 N.pl3     1 <0>        -0.8626
     17 H1         -0.9396    1.8989    0.3003 H         1 <0>         0.1280
     18 H2          1.1451    3.1698    0.0089 H         1 <0>         0.1294
     19 H3          3.2833    1.9951   -0.2936 H         1 <0>         0.1305
     20 H4         -0.9049   -0.5586    0.2838 H         1 <0>         0.1198
     21 H5         -0.9448   -1.7620   -1.8155 H         1 <0>         0.1819
     22 H6         -2.0944   -3.6879   -2.8004 H         1 <0>         0.1743
     23 H7         -1.3392   -5.9846   -2.2277 H         1 <0>         0.1918
     24 H8          4.4406   -0.1181   -0.4634 H         1 <0>         0.4027
     25 H9          3.6438   -1.5933   -0.3564 H         1 <0>         0.4047
@<TRIPOS>BOND
     1    1    6 ar
     2    1    2 ar
     3    1   17 1
     4    2    3 ar
     5    2   18 1
     6    3    4 ar
     7    3   19 1
     8    4    5 ar
     9    4   16 1
    10    5    6 ar
    11    5    7 1
    12    6   20 1
    13    7   11 1
    14    7    8 2
    15    8    9 1
    16    9   10 2
    17   10   15 1
    18   10   11 1
    19   11   12 1
    20   12   13 2
    21   12   21 1
    22   13   14 1
    23   13   22 1
    24   14   15 2
    25   14   23 1
    26   16   24 1
    27   16   25 1
@<TRIPOS>MOLECULE
ZINC43384025
   31    32     0     0     0
SMALL
USER_CHARGES

@<TRIPOS>ATOM
      1 C1         -0.0184    1.5028    0.0103 C.3       1 <0>        -0.0583
      2 C2          0.0021   -0.0041    0.0020 C.2       1 <0>        -0.2181
      3 C3         -1.0253   -0.8593    0.0018 C.2       1 <0>         0.0550
      4 N1         -0.7316   -2.1885   -0.0067 N.pl3     1 <0>        -0.6280
      5 H1         -1.4401   -2.8510   -0.0076 H         1 <0>         0.4333
      6 C4          0.5752   -2.5707   -0.0144 C.2       1 <0>         0.3731
      7 N2          1.0761   -3.8041   -0.0239 N.2       1 <0>        -0.6145
      8 C5          0.2555   -4.8583   -0.0268 C.2       1 <0>         0.6788
      9 O1         -0.9518   -4.6909   -0.0208 O.2       1 <0>        -0.6310
     10 N3          0.7627   -6.1070   -0.0364 N.am      1 <0>        -0.7144
     11 C6         -0.1372   -7.2631   -0.0396 C.3       1 <0>         0.1428
     12 C7          0.6879   -8.5515   -0.0508 C.3       1 <0>        -0.1367
     13 H2          1.3916   -8.5456   -0.8831 H         1 <0>         0.0929
     14 C8         -0.2397   -9.7882   -0.1342 C.3       1 <0>        -0.1467
     15 C9          0.4465  -10.7753    0.8442 C.3       1 <0>         0.0456
     16 O2          0.9231   -9.9206    1.9058 O.3       1 <0>        -0.3769
     17 C10         1.4348   -8.7253    1.2859 C.3       1 <0>         0.0481
     18 S1          1.4028   -1.1071   -0.0179 S.3       1 <0>         0.2003
     19 H3          1.0042    1.8801    0.0026 H         1 <0>         0.0787
     20 H4         -0.5455    1.8639   -0.8728 H         1 <0>         0.0822
     21 H5         -0.5286    1.8543    0.9071 H         1 <0>         0.0823
     22 H6         -2.0472   -0.5098    0.0084 H         1 <0>         0.1851
     23 H7          1.7235   -6.2402   -0.0412 H         1 <0>         0.4064
     24 H8         -0.7621   -7.2395    0.8531 H         1 <0>         0.0714
     25 H9         -0.7695   -7.2289   -0.9268 H         1 <0>         0.0704
     26 H10        -1.2466   -9.5427    0.2034 H         1 <0>         0.0830
     27 H11        -0.2580  -10.1931   -1.1460 H         1 <0>         0.0859
     28 H12        -0.2734  -11.4984    1.2275 H         1 <0>         0.0959
     29 H13         1.2791  -11.2824    0.3567 H         1 <0>         0.0630
     30 H14         2.5042   -8.8294    1.1021 H         1 <0>         0.0633
     31 H15         1.2493   -7.8648    1.9287 H         1 <0>         0.0870
@<TRIPOS>BOND
     1    1    2 1
     2    1   19 1
     3    1   20 1
     4    1   21 1
     5    2   18 1
     6    2    3 2
     7    3    4 1
     8    3   22 1
     9    4    5 1
    10    4    6 1
    11    6    7 2
    12    6   18 1
    13    7    8 1
    14    8    9 2
    15    8   10 am
    16   10   11 1
    17   10   23 1
    18   11   12 1
    19   11   24 1
    20   11   25 1
    21   12   13 1
    22   12   17 1
    23   12   14 1
    24   14   15 1
    25   14   26 1
    26   14   27 1
    27   15   16 1
    28   15   28 1
    29   15   29 1
    30   16   17 1
    31   17   30 1
    32   17   31 1
@<TRIPOS>MOLECULE
ZINC61221373
   35    36     0     0     0
SMALL
USER_CHARGES

@<TRIPOS>ATOM
      1 C1         -1.3326    2.5425    0.2125 C.3       1 <0>        -0.1711
      2 C2         -0.6413    1.2387   -0.1911 C.3       1 <0>         0.1228
      3 N1         -1.6055    0.1371   -0.1352 N.am      1 <0>        -0.6170
      4 C3         -1.7729   -0.6130    1.1110 C.3       1 <0>         0.1103
      5 C4         -3.2426   -1.0057    1.2780 C.3       1 <0>        -0.1263
      6 H1         -3.3323   -1.7547    2.0648 H         1 <0>         0.1311
      7 C5         -3.7538   -1.5759   -0.0212 C.2       1 <0>         0.5206
      8 O1         -4.5758   -2.4671   -0.0106 O.2       1 <0>        -0.4844
      9 N2         -3.2975   -1.0949   -1.1921 N.am      1 <0>        -0.5202
     10 C6         -2.3273   -0.1669   -1.2260 C.2       1 <0>         0.7063
     11 O2         -2.0942    0.4086   -2.2708 O.2       1 <0>        -0.5419
     12 C7         -3.8473   -1.5664   -2.3947 C.ar      1 <0>         0.0680
     13 C8         -3.2663   -2.6450   -3.0475 C.ar      1 <0>        -0.0466
     14 C9         -3.8069   -3.1093   -4.2299 C.ar      1 <0>        -0.1894
     15 C10        -4.9324   -2.4971   -4.7663 C.ar      1 <0>         0.2295
     16 C11        -5.5135   -1.4180   -4.1128 C.ar      1 <0>        -0.1894
     17 C12        -4.9753   -0.9577   -2.9277 C.ar      1 <0>        -0.0416
     18 N3         -5.4801   -2.9669   -5.9643 N.pl3     1 <0>        -0.8748
     19 C13        -4.0626    0.2304    1.6529 C.3       1 <0>        -0.1434
     20 H2         -0.6152    3.3621    0.1709 H         1 <0>         0.0714
     21 H3         -2.1555    2.7448   -0.4731 H         1 <0>         0.0591
     22 H4         -1.7196    2.4496    1.2272 H         1 <0>         0.0575
     23 H5         -0.2543    1.3316   -1.2058 H         1 <0>         0.0918
     24 H6          0.1816    1.0364    0.4945 H         1 <0>         0.0849
     25 H7         -1.1580   -1.5124    1.0790 H         1 <0>         0.0777
     26 H8         -1.4649    0.0076    1.9526 H         1 <0>         0.1042
     27 H9         -2.3910   -3.1207   -2.6305 H         1 <0>         0.1219
     28 H10        -3.3546   -3.9482   -4.7379 H         1 <0>         0.1279
     29 H11        -6.3886   -0.9417   -4.5296 H         1 <0>         0.1280
     30 H12        -5.4295   -0.1212   -2.4174 H         1 <0>         0.1220
     31 H13        -5.0740   -3.7203   -6.4207 H         1 <0>         0.4002
     32 H14        -6.2661   -2.5392   -6.3388 H         1 <0>         0.4002
     33 H15        -3.9740    0.9780    0.8647 H         1 <0>         0.0611
     34 H16        -5.1092   -0.0502    1.7716 H         1 <0>         0.0701
     35 H17        -3.6888    0.6439    2.5896 H         1 <0>         0.0796
@<TRIPOS>BOND
     1    1    2 1
     2    1   20 1
     3    1   21 1
     4    1   22 1
     5    2    3 1
     6    2   23 1
     7    2   24 1
     8    3   10 am
     9    3    4 1
    10    4    5 1
    11    4   25 1
    12    4   26 1
    13    5    6 1
    14    5    7 1
    15    5   19 1
    16    7    8 2
    17    7    9 am
    18    9   10 am
    19    9   12 1
    20   10   11 2
    21   12   17 ar
    22   12   13 ar
    23   13   14 ar
    24   13   27 1
    25   14   15 ar
    26   14   28 1
    27   15   16 ar
    28   15   18 1
    29   16   17 ar
    30   16   29 1
    31   17   30 1
    32   18   31 1
    33   18   32 1
    34   19   33 1
    35   19   34 1
    36   19   35 1
@<TRIPOS>MOLECULE
ZINC02570789
   28    29     0     0     0
SMALL
USER_CHARGES

@<TRIPOS>ATOM
      1 C1         -0.0187    1.5258    0.0104 C.3       1 <0>        -0.1232
      2 C2          0.0021   -0.0041    0.0020 C.3       1 <0>        -0.1141
      3 H1         -1.0082   -0.4127    0.0219 H         1 <0>         0.1506
      4 C3          0.7975   -0.5435   -1.1807 C.2       1 <0>         0.5328
      5 O1          0.4701   -0.3367   -2.3331 O.2       1 <0>        -0.4525
      6 N1          1.8547   -1.2423   -0.8703 N.2       1 <0>        -0.6443
      7 C4          2.2511   -1.4935    0.3709 C.2       1 <0>         0.5472
      8 S1          1.0249   -0.6708    1.3817 S.3       1 <0>        -0.1697
      9 N2          3.3374   -2.2109    0.7802 N.pl3     1 <0>        -0.5023
     10 N3          4.1933   -2.7878   -0.1671 N.2       1 <0>        -0.2065
     11 C5          5.2267   -3.4702    0.2222 C.2       1 <0>         0.1307
     12 C6          6.1271   -4.0770   -0.7743 C.ar      1 <0>        -0.0983
     13 C7          7.2369   -4.8169   -0.3597 C.ar      1 <0>        -0.0681
     14 C8          8.0754   -5.3820   -1.2973 C.ar      1 <0>        -0.1366
     15 C9          7.8220   -5.2193   -2.6487 C.ar      1 <0>        -0.0784
     16 C10         6.7275   -4.4891   -3.0717 C.ar      1 <0>        -0.1550
     17 C11         5.8713   -3.9198   -2.1433 C.ar      1 <0>         0.1550
     18 O2          4.7918   -3.2076   -2.5580 O.3       1 <0>        -0.4716
     19 H2          1.0039    1.9031    0.0027 H         1 <0>         0.0690
     20 H3         -0.5459    1.8868   -0.8726 H         1 <0>         0.0891
     21 H4         -0.5289    1.8773    0.9072 H         1 <0>         0.0777
     22 H5          3.5170   -2.3214    1.7270 H         1 <0>         0.4111
     23 H6          5.4266   -3.5932    1.2764 H         1 <0>         0.1290
     24 H7          7.4382   -4.9458    0.6935 H         1 <0>         0.1340
     25 H8          8.9336   -5.9537   -0.9761 H         1 <0>         0.1324
     26 H9          8.4838   -5.6652   -3.3765 H         1 <0>         0.1314
     27 H10         6.5368   -4.3660   -4.1276 H         1 <0>         0.1350
     28 H11         4.9674   -2.2652   -2.6848 H         1 <0>         0.3955
@<TRIPOS>BOND
     1    1    2 1
     2    1   19 1
     3    1   20 1
     4    1   21 1
     5    2    3 1
     6    2    8 1
     7    2    4 1
     8    4    5 2
     9    4    6 1
    10    6    7 2
    11    7    8 1
    12    7    9 1
    13    9   10 1
    14    9   22 1
    15   10   11 2
    16   11   12 1
    17   11   23 1
    18   12   17 ar
    19   12   13 ar
    20   13   14 ar
    21   13   24 1
    22   14   15 ar
    23   14   25 1
    24   15   16 ar
    25   15   26 1
    26   16   17 ar
    27   16   27 1
    28   17   18 1
    29   18   28 1
@<TRIPOS>MOLECULE
ZINC13135343
   36    38     0     0     0
SMALL
USER_CHARGES
(3E)-3-[(3,4-dihydroxy-5-methoxy-phenyl)methylene]chroman-4-one
@<TRIPOS>ATOM
      1 C1          3.6183    9.7316    4.4300 C.3       1 <0>         0.0217
      2 O1          4.6759    9.5479    3.4867 O.3       1 <0>        -0.3025
      3 C2          4.3798    8.8556    2.3542 C.ar      1 <0>         0.1219
      4 C3          3.1006    8.3724    2.1554 C.ar      1 <0>        -0.1793
      5 C4          2.7983    7.6550    0.9920 C.ar      1 <0>        -0.0304
      6 C5          3.7912    7.4403    0.0282 C.ar      1 <0>        -0.1568
      7 C6          5.0661    7.9319    0.2312 C.ar      1 <0>         0.1232
      8 C7          5.3646    8.6404    1.3930 C.ar      1 <0>         0.0631
      9 O2          6.6200    9.1225    1.5892 O.3       1 <0>        -0.4721
     10 O3          6.0309    7.7242   -0.7044 O.3       1 <0>        -0.4800
     11 C8          1.4413    7.1339    0.7799 C.2       1 <0>        -0.0068
     12 C9          1.2603    5.9694    0.1172 C.2       1 <0>        -0.2355
     13 C10         2.4145    5.0644   -0.2799 C.3       1 <0>         0.1021
     14 O4          2.1279    3.7429    0.1778 O.3       1 <0>        -0.3043
     15 C11         0.9083    3.2029   -0.0500 C.ar      1 <0>         0.1795
     16 C12         0.7691    1.8192   -0.0574 C.ar      1 <0>        -0.1622
     17 C13        -0.4676    1.2467   -0.2725 C.ar      1 <0>        -0.0504
     18 C14        -1.5856    2.0373   -0.4846 C.ar      1 <0>        -0.1640
     19 C15        -1.4706    3.4118   -0.4763 C.ar      1 <0>        -0.0282
     20 C16        -0.2244    3.9981   -0.2669 C.ar      1 <0>        -0.2434
     21 C17        -0.0782    5.4759   -0.2790 C.2       1 <0>         0.4411
     22 O5         -0.9880    6.2233   -0.5905 O.2       1 <0>        -0.4362
     23 H1          3.9881   10.2981    5.2847 H         1 <0>         0.1063
     24 H2          2.8014   10.2776    3.9581 H         1 <0>         0.0590
     25 H3          3.2587    8.7593    4.7666 H         1 <0>         0.0595
     26 H4          2.3362    8.5441    2.8988 H         1 <0>         0.1430
     27 H5          3.5604    6.8915   -0.8728 H         1 <0>         0.1435
     28 H6          6.7567   10.0156    1.2446 H         1 <0>         0.3874
     29 H7          6.0832    8.4179   -1.3761 H         1 <0>         0.3943
     30 H8          0.5883    7.6810    1.1534 H         1 <0>         0.1432
     31 H9          3.3358    5.4208    0.1808 H         1 <0>         0.1329
     32 H10         2.5234    5.0618   -1.3644 H         1 <0>         0.0833
     33 H11         1.6321    1.1906    0.1054 H         1 <0>         0.1397
     34 H12        -0.5644    0.1711   -0.2802 H         1 <0>         0.1364
     35 H13        -2.5481    1.5771   -0.6525 H         1 <0>         0.1338
     36 H14        -2.3414    4.0303   -0.6362 H         1 <0>         0.1372
@<TRIPOS>BOND
     1    1    2 1
     2    1   23 1
     3    1   24 1
     4    1   25 1
     5    2    3 1
     6    3    8 ar
     7    3    4 ar
     8    4    5 ar
     9    4   26 1
    10    5    6 ar
    11    5   11 1
    12    6    7 ar
    13    6   27 1
    14    7    8 ar
    15    7   10 1
    16    8    9 1
    17    9   28 1
    18   10   29 1
    19   11   12 2
    20   11   30 1
    21   12   21 1
    22   12   13 1
    23   13   14 1
    24   13   31 1
    25   13   32 1
    26   14   15 1
    27   15   20 ar
    28   15   16 ar
    29   16   17 ar
    30   16   33 1
    31   17   18 ar
    32   17   34 1
    33   18   19 ar
    34   18   35 1
    35   19   20 ar
    36   19   36 1
    37   20   21 1
    38   21   22 2
@<TRIPOS>MOLECULE
ZINC02388217
   34    37     0     0     0
SMALL
USER_CHARGES

@<TRIPOS>ATOM
      1 C1         -0.0164    1.3569    0.0095 C.ar      1 <0>        -0.1202
      2 C2          1.1715    2.0857    0.0021 C.ar      1 <0>        -0.1062
      3 C3          2.3793    1.4587    0.0215 C.ar      1 <0>        -0.0709
      4 C4          2.4402    0.0556    0.0806 C.ar      1 <0>         0.0297
      5 C5          1.2325   -0.6816   -0.0158 C.ar      1 <0>        -0.0828
      6 C6          0.0021   -0.0041    0.0020 C.ar      1 <0>        -0.1006
      7 C7          1.2917   -2.0775   -0.1624 C.ar      1 <0>        -0.0540
      8 C8          2.4989   -2.6950   -0.1848 C.ar      1 <0>        -0.1489
      9 C9          3.6923   -1.9840    0.0066 C.ar      1 <0>         0.1558
     10 C10         3.6616   -0.6260    0.2279 C.ar      1 <0>        -0.1712
     11 C11         4.8975    0.0653    0.6379 C.3       1 <0>         0.1981
     12 H1          5.2965    0.6080   -0.2242 H         1 <0>         0.0888
     13 C12         5.9604   -0.9989    1.0652 C.3       1 <0>        -0.1818
     14 H2          5.6455   -1.5265    1.9686 H         1 <0>         0.1101
     15 C13         6.0961   -1.9501   -0.1015 C.3       1 <0>         0.0822
     16 O1          4.8561   -2.6913   -0.0894 O.3       1 <0>        -0.3137
     17 C14         7.1124   -0.0388    1.3698 C.3       1 <0>         0.0454
     18 O2          6.4302    1.0951    1.9792 O.3       1 <0>        -0.1668
     19 N1          5.0084    0.9291    1.7966 N.am      1 <0>        -0.4860
     20 C15         4.0483    1.4475    2.5740 C.2       1 <0>         0.7369
     21 O3          2.8799    1.2055    2.3403 O.2       1 <0>        -0.5452
     22 N2          4.3776    2.2374    3.6152 N.am      1 <0>        -0.8583
     23 H3         -0.9617    1.8782    0.0259 H         1 <0>         0.1197
     24 H4          1.1334    3.1646   -0.0198 H         1 <0>         0.1163
     25 H5          3.2866    2.0432   -0.0311 H         1 <0>         0.1085
     26 H6         -0.9236   -0.5600    0.0086 H         1 <0>         0.1249
     27 H7          0.3837   -2.6529   -0.2560 H         1 <0>         0.1369
     28 H8          2.5418   -3.7612   -0.3530 H         1 <0>         0.1346
     29 H9          6.1941   -1.4052   -1.0365 H         1 <0>         0.0818
     30 H10         6.9340   -2.6263    0.0457 H         1 <0>         0.1210
     31 H11         7.8147   -0.4864    2.0727 H         1 <0>         0.1036
     32 H12         7.6188    0.2636    0.4540 H         1 <0>         0.0921
     33 H13         5.3098    2.4305    3.8017 H         1 <0>         0.4024
     34 H14         3.6826    2.6128    4.1781 H         1 <0>         0.4176
@<TRIPOS>BOND
     1    1    6 ar
     2    1    2 ar
     3    1   23 1
     4    2    3 ar
     5    2   24 1
     6    3    4 ar
     7    3   25 1
     8    4   10 ar
     9    4    5 ar
    10    5    6 ar
    11    5    7 ar
    12    6   26 1
    13    7    8 ar
    14    7   27 1
    15    8    9 ar
    16    8   28 1
    17    9   16 1
    18    9   10 ar
    19   10   11 1
    20   11   12 1
    21   11   19 1
    22   11   13 1
    23   13   14 1
    24   13   15 1
    25   13   17 1
    26   15   16 1
    27   15   29 1
    28   15   30 1
    29   17   18 1
    30   17   31 1
    31   17   32 1
    32   18   19 1
    33   19   20 am
    34   20   21 2
    35   20   22 am
    36   22   33 1
    37   22   34 1
@<TRIPOS>MOLECULE
ZINC41583520
   32    34     0     0     0
SMALL
USER_CHARGES

@<TRIPOS>ATOM
      1 C1         -0.0184    1.5028    0.0103 C.3       1 <0>        -0.1092
      2 C2          0.0021   -0.0041    0.0020 C.ar      1 <0>        -0.1265
      3 C3          0.0057   -0.6868   -1.2015 C.ar      1 <0>        -0.0705
      4 C4          0.0239   -2.0690   -1.2194 C.ar      1 <0>        -0.2059
      5 C5          0.0392   -2.7784   -0.0298 C.ar      1 <0>         0.1653
      6 C6          0.0360   -2.0914    1.1883 C.ar      1 <0>        -0.0695
      7 C7          0.0228   -0.6981    1.1949 C.ar      1 <0>        -0.0612
      8 C8          0.0522   -2.8420    2.4664 C.2       1 <0>         0.0231
      9 C9         -0.9885   -2.8043    3.3330 C.2       1 <0>        -0.2101
     10 S1         -0.4513   -3.8568    4.6633 S.3       1 <0>         0.2550
     11 C10         1.0521   -4.3075    4.0934 C.2       1 <0>         0.0402
     12 C11         1.1897   -3.6709    2.8624 C.2       1 <0>        -0.2372
     13 C12         2.4563   -3.9193    2.1433 C.2       1 <0>         0.5778
     14 O1          2.6624   -3.3990    1.0620 O.2       1 <0>        -0.4844
     15 N1          3.3791   -4.7261    2.6965 N.am      1 <0>        -0.6565
     16 H1          4.2102   -4.8878    2.2232 H         1 <0>         0.4346
     17 C13         3.1794   -5.3132    3.8878 C.2       1 <0>         0.7147
     18 O2          4.0433   -6.0345    4.3481 O.2       1 <0>        -0.5329
     19 N2          2.0472   -5.1121    4.5875 N.am      1 <0>        -0.5991
     20 H2          1.9294   -5.5490    5.4455 H         1 <0>         0.4392
     21 O3          0.0566   -4.1371   -0.0463 O.3       1 <0>        -0.3074
     22 C14         0.0583   -4.7704   -1.3274 C.3       1 <0>         0.0274
     23 H3          1.0042    1.8801    0.0026 H         1 <0>         0.0678
     24 H4         -0.5455    1.8639   -0.8728 H         1 <0>         0.0653
     25 H5         -0.5286    1.8543    0.9071 H         1 <0>         0.0653
     26 H6         -0.0062   -0.1374   -2.1312 H         1 <0>         0.1250
     27 H7          0.0259   -2.5963   -2.1619 H         1 <0>         0.1290
     28 H8          0.0248   -0.1619    2.1324 H         1 <0>         0.1298
     29 H9         -1.9196   -2.2651    3.2392 H         1 <0>         0.2019
     30 H10        -0.8383   -4.4823   -1.8762 H         1 <0>         0.0554
     31 H11         0.9415   -4.4593   -1.8853 H         1 <0>         0.0562
     32 H12         0.0729   -5.8525   -1.1977 H         1 <0>         0.0973
@<TRIPOS>BOND
     1    1    2 1
     2    1   23 1
     3    1   24 1
     4    1   25 1
     5    2    7 ar
     6    2    3 ar
     7    3    4 ar
     8    3   26 1
     9    4    5 ar
    10    4   27 1
    11    5    6 ar
    12    5   21 1
    13    6    7 ar
    14    6    8 1
    15    7   28 1
    16    8   12 1
    17    8    9 2
    18    9   10 1
    19    9   29 1
    20   10   11 1
    21   11   19 1
    22   11   12 2
    23   12   13 1
    24   13   14 2
    25   13   15 am
    26   15   16 1
    27   15   17 am
    28   17   18 2
    29   17   19 am
    30   19   20 1
    31   21   22 1
    32   22   30 1
    33   22   31 1
    34   22   32 1
@<TRIPOS>MOLECULE
ZINC50866654
   34    36     0     0     0
SMALL
USER_CHARGES

@<TRIPOS>ATOM
      1 C1         -0.0187    1.5258    0.0104 C.3       1 <0>        -0.1534
      2 C2          0.0021   -0.0041    0.0020 C.3       1 <0>        -0.1154
      3 C3          0.7421   -0.5109    1.2415 C.3       1 <0>        -0.0708
      4 C4          0.7625   -2.0177    1.2333 C.ar      1 <0>         0.2133
      5 C5          1.9605   -2.7004    1.3279 C.ar      1 <0>        -0.2962
      6 C6          1.9347   -4.0972    1.3170 C.ar      1 <0>         0.4471
      7 N1          0.7655   -4.7198    1.2166 N.ar      1 <0>        -0.5765
      8 C7         -0.3623   -4.0279    1.1278 C.ar      1 <0>         0.4121
      9 N2         -0.3674   -2.7016    1.1408 N.ar      1 <0>        -0.5465
     10 C8         -1.6493   -4.7545    1.0165 C.ar      1 <0>        -0.0397
     11 C9         -2.8455   -4.0452    0.9164 C.ar      1 <0>        -0.0532
     12 C10        -4.0426   -4.7222    0.8128 C.ar      1 <0>        -0.1117
     13 C11        -4.0614   -6.1094    0.8078 C.ar      1 <0>         0.0548
     14 C12        -2.8681   -6.8238    0.9078 C.ar      1 <0>         0.0190
     15 C13        -1.6655   -6.1487    1.0059 C.ar      1 <0>        -0.0510
     16 O1         -3.1555   -8.1583    0.8797 O.3       1 <0>        -0.3065
     17 C14        -4.5617   -8.2546    1.1735 C.3       1 <0>         0.2125
     18 O2         -5.0938   -6.9971    0.7170 O.3       1 <0>        -0.3064
     19 N3          3.1116   -4.8226    1.4091 N.pl3     1 <0>        -0.8359
     20 H1          1.0039    1.9031    0.0027 H         1 <0>         0.0537
     21 H2         -0.5459    1.8868   -0.8726 H         1 <0>         0.0569
     22 H3         -0.5289    1.8773    0.9072 H         1 <0>         0.0562
     23 H4         -1.0205   -0.3814    0.0098 H         1 <0>         0.0757
     24 H5          0.5123   -0.3556   -0.8948 H         1 <0>         0.0595
     25 H6          1.7647   -0.1336    1.2338 H         1 <0>         0.0825
     26 H7          0.2319   -0.1594    2.1383 H         1 <0>         0.0898
     27 H8          2.8957   -2.1661    1.4081 H         1 <0>         0.1419
     28 H9         -2.8347   -2.9652    0.9203 H         1 <0>         0.1545
     29 H10        -4.9680   -4.1709    0.7357 H         1 <0>         0.1429
     30 H11        -0.7400   -6.7007    1.0785 H         1 <0>         0.1483
     31 H12        -5.0116   -9.0824    0.6255 H         1 <0>         0.1341
     32 H13        -4.7218   -8.3716    2.2453 H         1 <0>         0.0867
     33 H14         3.9615   -4.3609    1.4819 H         1 <0>         0.4131
     34 H15         3.0855   -5.7922    1.4009 H         1 <0>         0.4086
@<TRIPOS>BOND
     1    1    2 1
     2    1   20 1
     3    1   21 1
     4    1   22 1
     5    2    3 1
     6    2   23 1
     7    2   24 1
     8    3    4 1
     9    3   25 1
    10    3   26 1
    11    4    9 ar
    12    4    5 ar
    13    5    6 ar
    14    5   27 1
    15    6    7 ar
    16    6   19 1
    17    7    8 ar
    18    8    9 ar
    19    8   10 1
    20   10   15 ar
    21   10   11 ar
    22   11   12 ar
    23   11   28 1
    24   12   13 ar
    25   12   29 1
    26   13   18 1
    27   13   14 ar
    28   14   15 ar
    29   14   16 1
    30   15   30 1
    31   16   17 1
    32   17   18 1
    33   17   31 1
    34   17   32 1
    35   19   33 1
    36   19   34 1
@<TRIPOS>MOLECULE
ZINC62997986
   35    37     0     0     0
SMALL
USER_CHARGES

@<TRIPOS>ATOM
      1 C1         -0.0837    1.5392    0.0364 C.3       1 <0>        -0.1256
      2 C2         -0.0316    0.0335    0.0033 C.ar      1 <0>        -0.0165
      3 C3         -0.0303   -0.6307   -1.2076 C.ar      1 <0>        -0.1879
      4 C4          0.0176   -2.0181   -1.2379 C.ar      1 <0>         0.2394
      5 C5          0.0643   -2.7368   -0.0502 C.ar      1 <0>        -0.1600
      6 C6          0.0629   -2.0712    1.1595 C.ar      1 <0>        -0.0503
      7 C7          0.0207   -0.6847    1.1888 C.ar      1 <0>         0.0061
      8 O1          0.0254   -0.0297    2.3805 O.3       1 <0>        -0.2149
      9 C8          1.2147    0.3867    2.8714 C.2       1 <0>         0.4603
     10 N1          2.2962    0.2345    2.1793 N.2       1 <0>        -0.8581
     11 S1          3.5314    0.8657    3.1158 S.o2      1 <0>         2.5804
     12 O2          4.3676   -0.2121    3.5134 O.2       1 <0>        -0.9306
     13 O3          4.0142    2.0335    2.4658 O.2       1 <0>        -0.9305
     14 C9          2.6029    1.3809    4.5345 C.ar      1 <0>        -0.6148
     15 C10         1.2902    1.0224    4.1947 C.ar      1 <0>        -0.1120
     16 C11         0.2819    1.3053    5.1288 C.ar      1 <0>        -0.0298
     17 C12         0.5926    1.9165    6.3230 C.ar      1 <0>        -0.0890
     18 C13         1.8967    2.2629    6.6278 C.ar      1 <0>        -0.0838
     19 C14         2.9086    1.9817    5.7199 C.ar      1 <0>         0.0046
     20 C15         0.1158   -4.2426   -0.0819 C.3       1 <0>        -0.1060
     21 N2          0.0185   -2.6918   -2.4640 N.pl3     1 <0>        -0.8706
     22 H1          0.9306    1.9383    0.0209 H         1 <0>         0.0799
     23 H2         -0.6306    1.9031   -0.8334 H         1 <0>         0.0761
     24 H3         -0.5886    1.8654    0.9457 H         1 <0>         0.0696
     25 H4         -0.0669   -0.0712   -2.1306 H         1 <0>         0.1316
     26 H5          0.0988   -2.6299    2.0831 H         1 <0>         0.1317
     27 H6         -0.7426    1.0429    4.9099 H         1 <0>         0.1498
     28 H7         -0.1937    2.1288    7.0322 H         1 <0>         0.1481
     29 H8          2.1268    2.7418    7.5680 H         1 <0>         0.1501
     30 H9          3.9305    2.2482    5.9460 H         1 <0>         0.1482
     31 H10         1.1551   -4.5701   -0.1083 H         1 <0>         0.0703
     32 H11        -0.3683   -4.6415    0.8095 H         1 <0>         0.0700
     33 H12        -0.4021   -4.6052   -0.9698 H         1 <0>         0.0620
     34 H13        -0.0143   -2.1896   -3.2932 H         1 <0>         0.4012
     35 H14         0.0520   -3.6610   -2.4848 H         1 <0>         0.4011
@<TRIPOS>BOND
     1    1    2 1
     2    1   22 1
     3    1   23 1
     4    1   24 1
     5    2    7 ar
     6    2    3 ar
     7    3    4 ar
     8    3   25 1
     9    4    5 ar
    10    4   21 1
    11    5    6 ar
    12    5   20 1
    13    6    7 ar
    14    6   26 1
    15    7    8 1
    16    8    9 1
    17    9   15 1
    18    9   10 2
    19   10   11 1
    20   11   12 2
    21   11   13 2
    22   11   14 1
    23   14   19 ar
    24   14   15 ar
    25   15   16 ar
    26   16   17 ar
    27   16   27 1
    28   17   18 ar
    29   17   28 1
    30   18   19 ar
    31   18   29 1
    32   19   30 1
    33   20   31 1
    34   20   32 1
    35   20   33 1
    36   21   34 1
    37   21   35 1
@<TRIPOS>MOLECULE
ZINC06850654
   27    28     0     0     0
SMALL
USER_CHARGES
5-chloro-2-(4-nitrophenoxy)-aniline
@<TRIPOS>ATOM
      1 C1          3.3380    7.3596   -0.3104 C.ar      1 <0>        -0.0154
      2 C2          3.4124    5.9837   -0.2119 C.ar      1 <0>        -0.1463
      3 C3          2.2506    5.2338   -0.0964 C.ar      1 <0>         0.1665
      4 C4          1.0164    5.8681   -0.0860 C.ar      1 <0>        -0.1922
      5 C5          0.9480    7.2446   -0.1791 C.ar      1 <0>        -0.0132
      6 C6          2.1072    7.9895   -0.2941 C.ar      1 <0>        -0.0800
      7 N1          2.0305    9.4640   -0.3994 N.pl3     1 <0>         0.0321
      8 O1          3.0510   10.1213   -0.5002 O.2       1 <0>        -0.1602
      9 O2          0.9469   10.0200   -0.3851 O.3       1 <0>        -0.1622
     10 O3          2.3210    3.8803    0.0007 O.3       1 <0>        -0.2322
     11 C7          1.1562    3.1782   -0.0057 C.ar      1 <0>        -0.0166
     12 C8          0.6006    2.7446    1.1869 C.ar      1 <0>        -0.0530
     13 C9         -0.5834    2.0306    1.1794 C.ar      1 <0>        -0.1571
     14 C10        -1.2195    1.7513   -0.0172 C.ar      1 <0>         0.0254
     15 C11        -0.6682    2.1763   -1.2125 C.ar      1 <0>        -0.1830
     16 C12         0.5195    2.8932   -1.2118 C.ar      1 <0>         0.2315
     17 N2          1.0768    3.3285   -2.4193 N.pl3     1 <0>        -0.8619
     18 Cl1        -2.7095    0.8605   -0.0189 Cl        1 <0>        -0.0536
     19 H1          4.2419    7.9437   -0.4006 H         1 <0>         0.1629
     20 H2          4.3740    5.4922   -0.2243 H         1 <0>         0.1584
     21 H3          0.1105    5.2864   -0.0008 H         1 <0>         0.1508
     22 H4         -0.0121    7.7391   -0.1666 H         1 <0>         0.1573
     23 H5          1.0923    2.9648    2.1230 H         1 <0>         0.1446
     24 H6         -1.0151    1.6937    2.1103 H         1 <0>         0.1433
     25 H7         -1.1645    1.9540   -2.1456 H         1 <0>         0.1429
     26 H8          0.6326    3.1291   -3.2582 H         1 <0>         0.4074
     27 H9          1.9073    3.8297   -2.4173 H         1 <0>         0.4037
@<TRIPOS>BOND
     1    1    6 ar
     2    1    2 ar
     3    1   19 1
     4    2    3 ar
     5    2   20 1
     6    3    4 ar
     7    3   10 1
     8    4    5 ar
     9    4   21 1
    10    5    6 ar
    11    5   22 1
    12    6    7 1
    13    7    8 2
    14    7    9 1
    15   10   11 1
    16   11   16 ar
    17   11   12 ar
    18   12   13 ar
    19   12   23 1
    20   13   14 ar
    21   13   24 1
    22   14   15 ar
    23   14   18 1
    24   15   16 ar
    25   15   25 1
    26   16   17 1
    27   17   26 1
    28   17   27 1
@<TRIPOS>MOLECULE
ZINC16904640
   37    39     0     0     0
SMALL
USER_CHARGES
(2Z,5Z)-2-(2-hydroxy-4-methyl-phenyl)imino-5-[(1-methylpyrrol-2-yl)methylene]thiazolidin-4-one
@<TRIPOS>ATOM
      1 C1         -6.9373    4.5781   -0.4352 C.3       1 <0>        -0.1171
      2 C2         -5.4352    4.5954   -0.3145 C.ar      1 <0>        -0.0689
      3 C3         -4.8026    3.7016    0.5311 C.ar      1 <0>        -0.1091
      4 C4         -3.4269    3.7060    0.6440 C.ar      1 <0>        -0.1235
      5 C5         -2.6719    4.6228   -0.0885 C.ar      1 <0>         0.0645
      6 C6         -3.3169    5.5261   -0.9430 C.ar      1 <0>         0.1293
      7 C7         -4.6962    5.5053   -1.0495 C.ar      1 <0>        -0.1330
      8 O1         -2.5901    6.4198   -1.6655 O.3       1 <0>        -0.4840
      9 N1         -1.3071    4.6356    0.0231 N.2       1 <0>        -0.4521
     10 C8         -0.6263    3.5199   -0.1122 C.2       1 <0>         0.3779
     11 N2          0.7401    3.3403   -0.0861 N.am      1 <0>        -0.6485
     12 C9          1.2635    2.1359   -0.2403 C.2       1 <0>         0.5653
     13 O2          2.4684    1.9592   -0.2195 O.2       1 <0>        -0.4915
     14 C10         0.3271    1.0186   -0.4375 C.2       1 <0>        -0.2270
     15 C11         0.5884   -0.3066   -0.6197 C.2       1 <0>         0.0894
     16 C12        -0.4766   -1.2372   -0.6726 C.2       1 <0>        -0.0125
     17 C13        -1.8269   -0.9366   -0.6649 C.2       1 <0>        -0.1204
     18 C14        -2.5187   -2.1504   -0.7322 C.2       1 <0>        -0.2031
     19 C15        -1.6049   -3.1493   -0.7708 C.2       1 <0>         0.0362
     20 N3         -0.3583   -2.6075   -0.7351 N.pl3     1 <0>        -0.4345
     21 C16         0.9004   -3.3567   -0.7587 C.3       1 <0>         0.0634
     22 S1         -1.2448    1.8668   -0.3817 S.3       1 <0>        -0.0137
     23 H1         -7.2298    3.8960   -1.2335 H         1 <0>         0.0751
     24 H2         -7.3737    4.2441    0.5061 H         1 <0>         0.0706
     25 H3         -7.2949    5.5817   -0.6656 H         1 <0>         0.0694
     26 H4         -5.3870    2.9951    1.1018 H         1 <0>         0.1320
     27 H5         -2.9359    3.0040    1.3016 H         1 <0>         0.1333
     28 H6         -5.1968    6.2005   -1.7071 H         1 <0>         0.1363
     29 H7         -2.3203    6.0954   -2.5356 H         1 <0>         0.3885
     30 H8          1.3228    4.1043    0.0469 H         1 <0>         0.4230
     31 H9          1.6082   -0.6465   -0.7238 H         1 <0>         0.1525
     32 H10        -2.2645    0.0497   -0.6181 H         1 <0>         0.1484
     33 H11        -3.5919   -2.2701   -0.7469 H         1 <0>         0.1480
     34 H12        -1.8298   -4.2044   -0.8219 H         1 <0>         0.1736
     35 H13         1.1594   -3.6639    0.2545 H         1 <0>         0.0819
     36 H14         0.7861   -4.2393   -1.3880 H         1 <0>         0.0913
     37 H15         1.6922   -2.7243   -1.1602 H         1 <0>         0.0886
@<TRIPOS>BOND
     1    1    2 1
     2    1   23 1
     3    1   24 1
     4    1   25 1
     5    2    7 ar
     6    2    3 ar
     7    3    4 ar
     8    3   26 1
     9    4    5 ar
    10    4   27 1
    11    5    6 ar
    12    5    9 1
    13    6    7 ar
    14    6    8 1
    15    7   28 1
    16    8   29 1
    17    9   10 2
    18   10   22 1
    19   10   11 1
    20   11   12 am
    21   11   30 1
    22   12   13 2
    23   12   14 1
    24   14   15 2
    25   14   22 1
    26   15   16 1
    27   15   31 1
    28   16   20 1
    29   16   17 2
    30   17   18 1
    31   17   32 1
    32   18   19 2
    33   18   33 1
    34   19   20 1
    35   19   34 1
    36   20   21 1
    37   21   35 1
    38   21   36 1
    39   21   37 1
@<TRIPOS>MOLECULE
ZINC36240353
   39    41     0     0     0
SMALL
USER_CHARGES

@<TRIPOS>ATOM
      1 C1         -2.9231    1.4774    1.4951 C.3       1 <0>        -0.1316
      2 C2         -2.7420    0.0003    1.2579 C.2       1 <0>         0.1033
      3 C3         -3.6470   -0.6754    0.5181 C.2       1 <0>        -0.1428
      4 C4         -3.4903   -2.0529    0.2890 C.2       1 <0>        -0.0811
      5 C5         -2.4202   -2.7077    0.8164 C.2       1 <0>        -0.0865
      6 C6         -1.4854   -1.9898    1.5854 C.2       1 <0>         0.1974
      7 N1         -1.6628   -0.6424    1.7872 N.pl3     1 <0>        -0.3822
      8 C7         -0.6037   -0.2364    2.5535 C.2       1 <0>         0.1864
      9 N2          0.1468   -1.2969    2.7755 N.2       1 <0>        -0.2306
     10 N3         -0.3717   -2.3325    2.2151 N.2       1 <0>        -0.2883
     11 C8         -0.3490    1.1351    3.0403 C.ar      1 <0>        -0.0057
     12 C9         -0.3557    2.2074    2.1461 C.ar      1 <0>        -0.1167
     13 C10        -0.1176    3.4879    2.6016 C.ar      1 <0>        -0.1650
     14 C11         0.1293    3.7143    3.9468 C.ar      1 <0>         0.0771
     15 C12         0.1382    2.6486    4.8460 C.ar      1 <0>         0.1981
     16 C13        -0.1066    1.3623    4.3963 C.ar      1 <0>        -0.1256
     17 N4          0.3886    2.8800    6.2035 N.pl3     1 <0>        -0.8706
     18 O1          0.3638    4.9783    4.3904 O.3       1 <0>        -0.3122
     19 C14         0.3608    6.0201    3.4122 C.3       1 <0>         0.0815
     20 C15        -1.0800    6.3279    2.9995 C.3       1 <0>        -0.1876
     21 C16         1.0014    7.2772    4.0040 C.3       1 <0>        -0.1481
     22 H1         -2.1290    2.0267    0.9893 H         1 <0>         0.0955
     23 H2         -3.8899    1.7926    1.1025 H         1 <0>         0.0913
     24 H3         -2.8815    1.6814    2.5650 H         1 <0>         0.0841
     25 H4         -4.4960   -0.1545    0.1004 H         1 <0>         0.1563
     26 H5         -4.2165   -2.5900   -0.3030 H         1 <0>         0.1499
     27 H6         -2.2900   -3.7664    0.6470 H         1 <0>         0.1588
     28 H7         -0.5470    2.0344    1.0973 H         1 <0>         0.1263
     29 H8         -0.1233    4.3160    1.9082 H         1 <0>         0.1378
     30 H9         -0.1053    0.5361    5.0919 H         1 <0>         0.1350
     31 H10         0.5561    3.7818    6.5190 H         1 <0>         0.4053
     32 H11         0.3948    2.1384    6.8289 H         1 <0>         0.4005
     33 H12         0.9284    5.6998    2.5386 H         1 <0>         0.0719
     34 H13        -1.5364    5.4324    2.5779 H         1 <0>         0.0662
     35 H14        -1.6477    6.6482    3.8732 H         1 <0>         0.0676
     36 H15        -1.0823    7.1226    2.2534 H         1 <0>         0.0727
     37 H16         2.0278    7.0578    4.2980 H         1 <0>         0.0660
     38 H17         0.9991    8.0718    3.2579 H         1 <0>         0.0785
     39 H18         0.4337    7.5974    4.8777 H         1 <0>         0.0671
@<TRIPOS>BOND
     1    1    2 1
     2    1   22 1
     3    1   23 1
     4    1   24 1
     5    2    7 1
     6    2    3 2
     7    3    4 1
     8    3   25 1
     9    4    5 2
    10    4   26 1
    11    5    6 1
    12    5   27 1
    13    6   10 2
    14    6    7 1
    15    7    8 1
    16    8    9 2
    17    8   11 1
    18    9   10 1
    19   11   16 ar
    20   11   12 ar
    21   12   13 ar
    22   12   28 1
    23   13   14 ar
    24   13   29 1
    25   14   15 ar
    26   14   18 1
    27   15   16 ar
    28   15   17 1
    29   16   30 1
    30   17   31 1
    31   17   32 1
    32   18   19 1
    33   19   20 1
    34   19   21 1
    35   19   33 1
    36   20   34 1
    37   20   35 1
    38   20   36 1
    39   21   37 1
    40   21   38 1
    41   21   39 1
@<TRIPOS>MOLECULE
ZINC42026664
   35    37     0     0     0
SMALL
USER_CHARGES

@<TRIPOS>ATOM
      1 C1         -1.5071    1.7595   -1.1455 C.3       1 <0>        -0.1125
      2 C2         -1.2554    0.2943   -0.8986 C.ar      1 <0>        -0.1338
      3 C3         -1.1358   -0.5740   -1.9675 C.ar      1 <0>        -0.0702
      4 C4         -0.9052   -1.9170   -1.7490 C.ar      1 <0>        -0.1458
      5 C5         -0.7920   -2.4027   -0.4456 C.ar      1 <0>        -0.0061
      6 C6         -0.9125   -1.5277    0.6326 C.ar      1 <0>        -0.1357
      7 C7         -1.1385   -0.1787    0.4030 C.ar      1 <0>         0.2173
      8 N1         -1.2539    0.7035    1.4800 N.pl3     1 <0>        -0.8725
      9 C8         -0.5453   -3.8424   -0.2089 C.2       1 <0>         0.3092
     10 N2         -0.7657   -4.5025    0.9090 N.2       1 <0>        -0.3164
     11 N3         -0.4423   -5.7376    0.7739 N.2       1 <0>        -0.0306
     12 N4          0.0013   -5.9625   -0.4150 N.2       1 <0>        -0.0676
     13 N5         -0.0516   -4.7408   -1.1090 N.pl3     1 <0>        -0.3349
     14 C9          0.3241   -4.4980   -2.4371 C.ar      1 <0>         0.1439
     15 C10         1.2999   -3.5525   -2.7219 C.ar      1 <0>        -0.1289
     16 C11         1.6687   -3.3156   -4.0337 C.ar      1 <0>         0.1116
     17 C12         1.0644   -4.0209   -5.0616 C.ar      1 <0>        -0.1262
     18 C13         0.0925   -4.9621   -4.7789 C.ar      1 <0>        -0.0782
     19 C14        -0.2750   -5.2067   -3.4698 C.ar      1 <0>        -0.0634
     20 C15        -1.3304   -6.2378   -3.1633 C.3       1 <0>        -0.1291
     21 F1          2.6182   -2.3959   -4.3128 F         1 <0>        -0.1261
     22 H1         -0.5546    2.2818   -1.2346 H         1 <0>         0.0723
     23 H2         -2.0752    1.8801   -2.0679 H         1 <0>         0.0723
     24 H3         -2.0736    2.1762   -0.3127 H         1 <0>         0.0635
     25 H4         -1.2234   -0.2002   -2.9769 H         1 <0>         0.1323
     26 H5         -0.8128   -2.5922   -2.5868 H         1 <0>         0.1250
     27 H6         -0.8261   -1.8983    1.6433 H         1 <0>         0.1387
     28 H7         -1.4156    1.6463    1.3194 H         1 <0>         0.4015
     29 H8         -1.1723    0.3732    2.3884 H         1 <0>         0.4021
     30 H9          1.7702   -3.0024   -1.9202 H         1 <0>         0.1465
     31 H10         1.3530   -3.8348   -6.0856 H         1 <0>         0.1502
     32 H11        -0.3772   -5.5103   -5.5822 H         1 <0>         0.1509
     33 H12        -2.2996   -5.7483   -3.0677 H         1 <0>         0.0771
     34 H13        -1.3704   -6.9682   -3.9714 H         1 <0>         0.0826
     35 H14        -1.0847   -6.7427   -2.2290 H         1 <0>         0.0812
@<TRIPOS>BOND
     1    1    2 1
     2    1   22 1
     3    1   23 1
     4    1   24 1
     5    2    7 ar
     6    2    3 ar
     7    3    4 ar
     8    3   25 1
     9    4    5 ar
    10    4   26 1
    11    5    6 ar
    12    5    9 1
    13    6    7 ar
    14    6   27 1
    15    7    8 1
    16    8   28 1
    17    8   29 1
    18    9   13 1
    19    9   10 2
    20   10   11 1
    21   11   12 2
    22   12   13 1
    23   13   14 1
    24   14   19 ar
    25   14   15 ar
    26   15   16 ar
    27   15   30 1
    28   16   17 ar
    29   16   21 1
    30   17   18 ar
    31   17   31 1
    32   18   19 ar
    33   18   32 1
    34   19   20 1
    35   20   33 1
    36   20   34 1
    37   20   35 1
@<TRIPOS>MOLECULE
ZINC55503501
   32    35     0     0     0
SMALL
USER_CHARGES

@<TRIPOS>ATOM
      1 C1         -0.0162    1.3425    0.0094 C.2       1 <0>        -0.2172
      2 C2          1.3262    1.7740   -0.0011 C.2       1 <0>        -0.1894
      3 C3          2.0977    0.6538   -0.0145 C.2       1 <0>         0.0373
      4 O1          1.2812   -0.4173   -0.0124 O.3       1 <0>        -0.1495
      5 C4          0.0021   -0.0041    0.0020 C.2       1 <0>        -0.0274
      6 C5          3.5740    0.6182   -0.0287 C.2       1 <0>         0.0137
      7 C6          4.2756    1.3610   -0.9224 C.2       1 <0>        -0.1684
      8 S1          5.9729    0.9763   -0.5375 S.3       1 <0>         0.1783
      9 C7          5.7073   -0.1601    0.7992 C.2       1 <0>         0.1141
     10 C8          4.3075   -0.2114    0.9214 C.2       1 <0>        -0.2477
     11 C9          3.8017   -1.0678    1.9496 C.2       1 <0>         0.5568
     12 O2          2.6005   -1.1785    2.1253 O.2       1 <0>        -0.5031
     13 N1          4.6689   -1.7498    2.7201 N.am      1 <0>        -0.6348
     14 H1          4.3303   -2.3319    3.4183 H         1 <0>         0.4202
     15 C10         6.0195   -1.6369    2.5355 C.2       1 <0>         0.4654
     16 N2          6.5091   -0.8632    1.5890 N.2       1 <0>        -0.4856
     17 C11         6.9394   -2.4006    3.4009 C.ar      1 <0>        -0.0902
     18 C12         6.4310   -3.2373    4.3978 C.ar      1 <0>        -0.0681
     19 C13         7.2931   -3.9486    5.2030 C.ar      1 <0>        -0.1473
     20 C14         8.6664   -3.8346    5.0253 C.ar      1 <0>         0.1457
     21 C15         9.1762   -3.0037    4.0351 C.ar      1 <0>        -0.1513
     22 C16         8.3210   -2.2932    3.2218 C.ar      1 <0>        -0.0291
     23 O3          9.5127   -4.5368    5.8216 O.3       1 <0>        -0.4962
     24 H2         -0.8931    1.9727    0.0252 H         1 <0>         0.1501
     25 H3          1.6745    2.7963    0.0011 H         1 <0>         0.1491
     26 H4         -0.8668   -0.6455    0.0072 H         1 <0>         0.2021
     27 H5          3.8963    2.0260   -1.6842 H         1 <0>         0.2048
     28 H6          5.3637   -3.3259    4.5371 H         1 <0>         0.1312
     29 H7          6.9009   -4.5956    5.9738 H         1 <0>         0.1420
     30 H8         10.2443   -2.9179    3.9002 H         1 <0>         0.1429
     31 H9          8.7179   -1.6510    2.4495 H         1 <0>         0.1513
     32 H10         9.7395   -5.4123    5.4793 H         1 <0>         0.4002
@<TRIPOS>BOND
     1    1    5 2
     2    1    2 1
     3    1   24 1
     4    2    3 2
     5    2   25 1
     6    3    4 1
     7    3    6 1
     8    4    5 1
     9    5   26 1
    10    6   10 1
    11    6    7 2
    12    7    8 1
    13    7   27 1
    14    8    9 1
    15    9   16 1
    16    9   10 2
    17   10   11 1
    18   11   12 2
    19   11   13 am
    20   13   14 1
    21   13   15 1
    22   15   16 2
    23   15   17 1
    24   17   22 ar
    25   17   18 ar
    26   18   19 ar
    27   18   28 1
    28   19   20 ar
    29   19   29 1
    30   20   21 ar
    31   20   23 1
    32   21   22 ar
    33   21   30 1
    34   22   31 1
    35   23   32 1
@<TRIPOS>MOLECULE
ZINC06385029
   29    30     0     0     0
SMALL
USER_CHARGES
methyl 5,8-dihydroxy-4-oxo-tetralin-2-carboxylate
@<TRIPOS>ATOM
      1 C1         -7.3002    0.9946    0.6977 C.3       1 <0>         0.0342
      2 O1         -6.1051    1.8017    0.8675 O.3       1 <0>        -0.3555
      3 C2         -4.9474    1.2736    0.4403 C.2       1 <0>         0.4676
      4 O2         -4.9330    0.1735   -0.0590 O.2       1 <0>        -0.4965
      5 C3         -3.6655    2.0530    0.5835 C.3       1 <0>        -0.0760
      6 H1         -3.4845    2.2648    1.6373 H         1 <0>         0.1196
      7 C4         -2.5060    1.2344    0.0221 C.3       1 <0>        -0.0669
      8 C5         -1.2280    2.0278    0.0189 C.ar      1 <0>        -0.0405
      9 C6         -0.0164    1.3557    0.0095 C.ar      1 <0>         0.0861
     10 C7          1.1792    2.0621    0.0019 C.ar      1 <0>        -0.0897
     11 C8          1.1785    3.4427    0.0083 C.ar      1 <0>        -0.1457
     12 C9         -0.0231    4.1344    0.0245 C.ar      1 <0>         0.1641
     13 C10        -1.2340    3.4250    0.0353 C.ar      1 <0>        -0.1880
     14 C11        -2.5099    4.1584    0.0631 C.2       1 <0>         0.4009
     15 O3         -2.5437    5.3508    0.2828 O.2       1 <0>        -0.4205
     16 C12        -3.7792    3.3722   -0.1916 C.3       1 <0>        -0.1454
     17 O4         -0.0282    5.4911    0.0304 O.3       1 <0>        -0.4784
     18 O5          0.0021   -0.0041    0.0020 O.3       1 <0>        -0.4896
     19 H2         -7.4480    0.7827   -0.3612 H         1 <0>         0.0656
     20 H3         -7.1865    0.0579    1.2433 H         1 <0>         0.0655
     21 H4         -8.1631    1.5374    1.0835 H         1 <0>         0.1050
     22 H5         -2.3723    0.3402    0.6309 H         1 <0>         0.0974
     23 H6         -2.7399    0.9384   -1.0005 H         1 <0>         0.1031
     24 H7          2.1173    1.5271   -0.0095 H         1 <0>         0.1415
     25 H8          2.1133    3.9836    0.0011 H         1 <0>         0.1430
     26 H9         -4.5793    3.8793    0.1290 H         1 <0>         0.0992
     27 H10        -3.8816    3.1692   -1.2576 H         1 <0>         0.1099
     28 H11        -0.0395    5.8883   -0.8512 H         1 <0>         0.3973
     29 H12         0.0158   -0.4021    0.8832 H         1 <0>         0.3928
@<TRIPOS>BOND
     1    1    2 1
     2    1   19 1
     3    1   20 1
     4    1   21 1
     5    2    3 1
     6    3    4 2
     7    3    5 1
     8    5    6 1
     9    5   16 1
    10    5    7 1
    11    7    8 1
    12    7   22 1
    13    7   23 1
    14    8   13 ar
    15    8    9 ar
    16    9   10 ar
    17    9   18 1
    18   10   11 ar
    19   10   24 1
    20   11   12 ar
    21   11   25 1
    22   12   13 ar
    23   12   17 1
    24   13   14 1
    25   14   15 2
    26   14   16 1
    27   16   26 1
    28   16   27 1
    29   17   28 1
    30   18   29 1
@<TRIPOS>MOLECULE
ZINC20244407
   29    31     0     0     0
SMALL
USER_CHARGES
3-(4-amino-1,3-dioxo-isoindolin-2-yl)benzonitrile
@<TRIPOS>ATOM
      1 C1         -1.2169    1.7497    0.0173 C.ar      1 <0>        -0.0968
      2 C2         -0.0126    1.0758    0.0080 C.ar      1 <0>        -0.0772
      3 C3          1.1869    1.7906    0.0003 C.ar      1 <0>        -0.0055
      4 C4          1.1620    3.1859    0.0081 C.ar      1 <0>        -0.0955
      5 C5         -0.0525    3.8523    0.0233 C.ar      1 <0>         0.1291
      6 C6         -1.2407    3.1317    0.0313 C.ar      1 <0>        -0.1106
      7 N1         -0.0828    5.2537    0.0312 N.am      1 <0>        -0.5208
      8 C7          1.0098    6.0387    0.0308 C.2       1 <0>         0.5746
      9 O1          2.1613    5.6523    0.0240 O.2       1 <0>        -0.4482
     10 C8          0.5727    7.4504    0.0368 C.ar      1 <0>        -0.0861
     11 C9          1.2325    8.6669    0.0371 C.ar      1 <0>        -0.0990
     12 C10         0.5051    9.8496    0.0496 C.ar      1 <0>        -0.0406
     13 C11        -0.8728    9.8261    0.0626 C.ar      1 <0>        -0.1746
     14 C12        -1.5584    8.6094    0.0630 C.ar      1 <0>         0.3141
     15 C13        -0.8384    7.4159    0.0501 C.ar      1 <0>        -0.2590
     16 C14        -1.2082    5.9906    0.0460 C.2       1 <0>         0.5907
     17 O2         -2.3416    5.5527    0.0544 O.2       1 <0>        -0.4725
     18 N2         -2.9453    8.5887    0.0757 N.pl3     1 <0>        -0.8735
     19 C15         2.4382    1.0943   -0.0159 C.1       1 <0>         0.2527
     20 N3          3.4308    0.5420   -0.0287 N.1       1 <0>        -0.4045
     21 H1         -2.1438    1.1954    0.0187 H         1 <0>         0.1447
     22 H2          0.0021   -0.0041    0.0020 H         1 <0>         0.1395
     23 H3          2.0864    3.7444    0.0027 H         1 <0>         0.1644
     24 H4         -2.1863    3.6534    0.0431 H         1 <0>         0.1641
     25 H5          2.3121    8.6963    0.0269 H         1 <0>         0.1412
     26 H6          1.0240   10.7968    0.0494 H         1 <0>         0.1442
     27 H7         -1.4256   10.7539    0.0723 H         1 <0>         0.1413
     28 H8         -3.4810    7.6280    0.0760 H         1 <0>         0.4366
     29 H9         -3.5094    9.5330    0.0855 H         1 <0>         0.4272
@<TRIPOS>BOND
     1    1    6 ar
     2    1    2 ar
     3    1   21 1
     4    2    3 ar
     5    2   22 1
     6    3    4 ar
     7    3   19 1
     8    4    5 ar
     9    4   23 1
    10    5    6 ar
    11    5    7 1
    12    6   24 1
    13    7   16 am
    14    7    8 am
    15    8    9 2
    16    8   10 1
    17   10   15 ar
    18   10   11 ar
    19   11   12 ar
    20   11   25 1
    21   12   13 ar
    22   12   26 1
    23   13   14 ar
    24   13   27 1
    25   14   15 ar
    26   14   18 1
    27   15   16 1
    28   16   17 2
    29   18   28 1
    30   18   29 1
    31   19   20 3
@<TRIPOS>MOLECULE
ZINC36335660
   36    38     0     0     0
SMALL
USER_CHARGES

@<TRIPOS>ATOM
      1 C1         -0.0178    1.4608    0.0101 C.3       1 <0>         0.0915
      2 N1          0.0021   -0.0041    0.0020 N.pl3     1 <0>        -0.6375
      3 C2          0.0241   -0.7433    1.2666 C.3       1 <0>         0.0914
      4 C3         -0.0000   -0.6968   -1.2131 C.ar      1 <0>         0.2100
      5 C4          0.0131   -2.0857   -1.2209 C.ar      1 <0>        -0.1790
      6 C5          0.0111   -2.7691   -2.4205 C.ar      1 <0>        -0.0867
      7 C6         -0.0036   -2.0684   -3.6187 C.ar      1 <0>         0.0620
      8 C7         -0.0167   -0.6803   -3.6114 C.ar      1 <0>        -0.0862
      9 C8         -0.0209    0.0038   -2.4121 C.ar      1 <0>        -0.1797
     10 N2         -0.0047   -2.7636   -4.8381 N.am      1 <0>        -0.5117
     11 C9          0.0019   -4.1044   -4.9499 C.2       1 <0>         0.5734
     12 O1          0.0091   -4.8935   -4.0266 O.2       1 <0>        -0.4533
     13 C10        -0.0018   -4.4550   -6.3856 C.ar      1 <0>        -0.0869
     14 C11         0.0013   -5.6462   -7.0899 C.ar      1 <0>        -0.0966
     15 C12        -0.0046   -5.6302   -8.4784 C.ar      1 <0>        -0.0432
     16 C13        -0.0136   -4.4362   -9.1665 C.ar      1 <0>        -0.1711
     17 C14        -0.0164   -3.2226   -8.4751 C.ar      1 <0>         0.3000
     18 C15        -0.0110   -3.2269   -7.0813 C.ar      1 <0>        -0.2482
     19 C16        -0.0183   -2.1771   -6.0486 C.2       1 <0>         0.5858
     20 O2         -0.0318   -0.9798   -6.2555 O.2       1 <0>        -0.4735
     21 N3         -0.0245   -2.0223   -9.1703 N.pl3     1 <0>        -0.8520
     22 H1          1.0048    1.8381    0.0023 H         1 <0>         0.0496
     23 H2         -0.5450    1.8219   -0.8730 H         1 <0>         0.0695
     24 H3         -0.5280    1.8123    0.9069 H         1 <0>         0.0676
     25 H4         -0.9979   -0.9406    1.5900 H         1 <0>         0.0497
     26 H5          0.5496   -1.6879    1.1262 H         1 <0>         0.0698
     27 H6          0.5371   -0.1514    2.0246 H         1 <0>         0.0676
     28 H7          0.0252   -2.6309   -0.2887 H         1 <0>         0.1309
     29 H8          0.0213   -3.8491   -2.4266 H         1 <0>         0.1543
     30 H9         -0.0277   -0.1355   -4.5438 H         1 <0>         0.1547
     31 H10        -0.0359    1.0837   -2.4064 H         1 <0>         0.1304
     32 H11         0.0087   -6.5874   -6.5602 H         1 <0>         0.1417
     33 H12        -0.0018   -6.5621   -9.0242 H         1 <0>         0.1446
     34 H13        -0.0181   -4.4388  -10.2465 H         1 <0>         0.1418
     35 H14        -0.0282   -2.0236  -10.1403 H         1 <0>         0.4061
     36 H15        -0.0264   -1.1816   -8.6864 H         1 <0>         0.4133
@<TRIPOS>BOND
     1    1    2 1
     2    1   22 1
     3    1   23 1
     4    1   24 1
     5    2    3 1
     6    2    4 1
     7    3   25 1
     8    3   26 1
     9    3   27 1
    10    4    9 ar
    11    4    5 ar
    12    5    6 ar
    13    5   28 1
    14    6    7 ar
    15    6   29 1
    16    7    8 ar
    17    7   10 1
    18    8    9 ar
    19    8   30 1
    20    9   31 1
    21   10   19 am
    22   10   11 am
    23   11   12 2
    24   11   13 1
    25   13   18 ar
    26   13   14 ar
    27   14   15 ar
    28   14   32 1
    29   15   16 ar
    30   15   33 1
    31   16   17 ar
    32   16   34 1
    33   17   18 ar
    34   17   21 1
    35   18   19 1
    36   19   20 2
    37   21   35 1
    38   21   36 1
@<TRIPOS>MOLECULE
ZINC49067526
   24    26     0     0     0
SMALL
USER_CHARGES

@<TRIPOS>ATOM
      1 C1         -0.0167    1.3824    0.0096 C.ar      1 <0>        -0.0411
      2 C2          1.1640    2.1010    0.0022 C.ar      1 <0>        -0.1628
      3 C3          2.3740    1.4301   -0.0134 C.ar      1 <0>         0.2429
      4 C4          2.3975    0.0238   -0.0257 C.ar      1 <0>        -0.1967
      5 C5          1.2014   -0.6885   -0.0155 C.ar      1 <0>        -0.0116
      6 C6          0.0021   -0.0041    0.0020 C.ar      1 <0>        -0.0870
      7 Cl1        -1.4931   -0.8861    0.0146 Cl        1 <0>        -0.0637
      8 C7          3.7054   -0.6558   -0.0542 C.2       1 <0>         0.5800
      9 O1          3.7769   -1.8410   -0.3168 O.2       1 <0>        -0.5211
     10 N1          4.8221    0.0522    0.2140 N.am      1 <0>        -0.7324
     11 C8          4.7512    1.4587    0.6093 C.3       1 <0>         0.4710
     12 H1          5.6613    1.9687    0.2935 H         1 <0>         0.1330
     13 N2          3.5902    2.1049   -0.0150 N.pl3     1 <0>        -0.7320
     14 C9          4.6227    1.5499    2.1081 C.2       1 <0>        -0.0401
     15 C10         5.1568    0.6222    2.9436 C.2       1 <0>        -0.2585
     16 S1          4.7165    1.2162    4.4516 S.3       1 <0>         0.4112
     17 N3          3.9164    2.5446    3.9900 N.2       1 <0>        -0.2437
     18 N4          3.9891    2.5377    2.7045 N.2       1 <0>        -0.2231
     19 H2         -0.9617    1.9050    0.0260 H         1 <0>         0.1415
     20 H3          1.1422    3.1808    0.0082 H         1 <0>         0.1429
     21 H4          1.2114   -1.7685   -0.0216 H         1 <0>         0.1464
     22 H5          5.6879   -0.3795    0.1437 H         1 <0>         0.4149
     23 H6          3.6697    2.9827   -0.4199 H         1 <0>         0.4222
     24 H7          5.7190   -0.2675    2.7011 H         1 <0>         0.2077
@<TRIPOS>BOND
     1    1    6 ar
     2    1    2 ar
     3    1   19 1
     4    2    3 ar
     5    2   20 1
     6    3   13 1
     7    3    4 ar
     8    4    5 ar
     9    4    8 1
    10    5    6 ar
    11    5   21 1
    12    6    7 1
    13    8    9 2
    14    8   10 am
    15   10   11 1
    16   10   22 1
    17   11   12 1
    18   11   13 1
    19   11   14 1
    20   13   23 1
    21   14   18 1
    22   14   15 2
    23   15   16 1
    24   15   24 1
    25   16   17 1
    26   17   18 2
@<TRIPOS>MOLECULE
ZINC62800313
   38    40     0     0     0
SMALL
USER_CHARGES

@<TRIPOS>ATOM
      1 C1          0.0104    1.3753    0.2733 C.ar      1 <0>        -0.0836
      2 C2          1.1700    2.0870    0.0531 C.ar      1 <0>        -0.1025
      3 C3          2.3735    1.4143   -0.1968 C.ar      1 <0>        -0.0306
      4 C4          2.3868    0.0228   -0.2205 C.ar      1 <0>        -0.0910
      5 C5          1.2134   -0.6835    0.0021 C.ar      1 <0>         0.1252
      6 C6          0.0276   -0.0067    0.2489 C.ar      1 <0>        -0.1813
      7 O1          1.2257   -2.0423   -0.0213 O.3       1 <0>        -0.2888
      8 C7         -0.0349   -2.7046    0.0977 C.3       1 <0>         0.0701
      9 H1         -0.8024   -2.1264   -0.4168 H         1 <0>         0.1098
     10 C8          0.0577   -4.1016   -0.5210 C.3       1 <0>        -0.1119
     11 C9          1.4337   -4.7004   -0.2929 C.3       1 <0>        -0.1209
     12 C10         1.7369   -5.0027    1.1632 C.3       1 <0>        -0.1400
     13 C11         1.8431   -3.7118    1.9774 C.3       1 <0>         0.0943
     14 N1          0.4959   -3.3275    2.4290 N.am      1 <0>        -0.7130
     15 C12        -0.3993   -2.8458    1.5606 C.2       1 <0>         0.5019
     16 O2         -1.5056   -2.5265    1.9414 O.2       1 <0>        -0.5387
     17 C13         3.7859   -0.4675   -0.5061 C.3       1 <0>        -0.0708
     18 C14         4.6602    0.7843   -0.6610 C.3       1 <0>        -0.1138
     19 C15         3.7249    1.9517   -0.4574 C.2       1 <0>         0.1725
     20 N2          4.0496    3.2027   -0.5030 N.2       1 <0>        -0.3203
     21 O3          5.3900    3.5772   -0.7638 O.3       1 <0>        -0.4034
     22 H2         -0.9135    1.8989    0.4698 H         1 <0>         0.1355
     23 H3          1.1508    3.1667    0.0728 H         1 <0>         0.1319
     24 H4         -0.8833   -0.5605    0.4223 H         1 <0>         0.1399
     25 H5         -0.6942   -4.7462   -0.0658 H         1 <0>         0.0837
     26 H6         -0.1307   -4.0328   -1.5924 H         1 <0>         0.0869
     27 H7          1.5093   -5.6261   -0.8635 H         1 <0>         0.0688
     28 H8          2.1831   -4.0027   -0.6668 H         1 <0>         0.0782
     29 H9          0.9391   -5.6212    1.5745 H         1 <0>         0.0676
     30 H10         2.6797   -5.5458    1.2277 H         1 <0>         0.0793
     31 H11         2.4856   -3.8768    2.8424 H         1 <0>         0.0849
     32 H12         2.2600   -2.9201    1.3550 H         1 <0>         0.1014
     33 H13         0.2559   -3.4220    3.3641 H         1 <0>         0.4017
     34 H14         4.1462   -1.0750    0.3241 H         1 <0>         0.0880
     35 H15         3.7978   -1.0486   -1.4282 H         1 <0>         0.0897
     36 H16         5.4451    0.7928    0.0953 H         1 <0>         0.0959
     37 H17         5.0962    0.8193   -1.6593 H         1 <0>         0.0962
     38 H18         5.5357    4.5330   -0.7783 H         1 <0>         0.4073
@<TRIPOS>BOND
     1    1    6 ar
     2    1    2 ar
     3    1   22 1
     4    2    3 ar
     5    2   23 1
     6    3   19 1
     7    3    4 ar
     8    4    5 ar
     9    4   17 1
    10    5    6 ar
    11    5    7 1
    12    6   24 1
    13    7    8 1
    14    8    9 1
    15    8   15 1
    16    8   10 1
    17   10   11 1
    18   10   25 1
    19   10   26 1
    20   11   12 1
    21   11   27 1
    22   11   28 1
    23   12   13 1
    24   12   29 1
    25   12   30 1
    26   13   14 1
    27   13   31 1
    28   13   32 1
    29   14   15 am
    30   14   33 1
    31   15   16 2
    32   17   18 1
    33   17   34 1
    34   17   35 1
    35   18   19 1
    36   18   36 1
    37   18   37 1
    38   19   20 2
    39   20   21 1
    40   21   38 1
@<TRIPOS>MOLECULE
ZINC09549634
   34    36     0     0     0
SMALL
USER_CHARGES
2-(4-methyl-3-nitro-phenyl)-2,3-dihydro-1H-quinazolin-4-one
@<TRIPOS>ATOM
      1 C1         -0.0338    4.0800    0.2424 C.3       1 <0>        -0.1298
      2 C2         -1.3267    3.3138    0.1307 C.ar      1 <0>        -0.0131
      3 C3         -2.5311    3.9529    0.3602 C.ar      1 <0>        -0.1179
      4 C4         -3.7168    3.2503    0.2573 C.ar      1 <0>        -0.0401
      5 C5         -3.6986    1.9084   -0.0752 C.ar      1 <0>        -0.1336
      6 C6         -2.4949    1.2708   -0.3098 C.ar      1 <0>        -0.0340
      7 C7         -1.3085    1.9724   -0.2017 C.ar      1 <0>        -0.0411
      8 N1         -0.0192    1.2883   -0.4479 N.pl3     1 <0>         0.0235
      9 O1          0.8880    1.8807   -1.0042 O.2       1 <0>        -0.1448
     10 O2          0.1363    0.1347   -0.0896 O.3       1 <0>        -0.1538
     11 C8         -4.9915    1.1424   -0.1878 C.3       1 <0>         0.4311
     12 H1         -5.2421    0.7128    0.7821 H         1 <0>         0.1272
     13 N2         -6.0624    2.0552   -0.6065 N.pl3     1 <0>        -0.7471
     14 C9         -6.1144    2.4589   -1.9321 C.ar      1 <0>         0.2293
     15 C10        -6.6233    3.6906   -2.3058 C.ar      1 <0>        -0.1812
     16 C11        -6.6429    4.0456   -3.6411 C.ar      1 <0>        -0.0515
     17 C12        -6.1577    3.1788   -4.6079 C.ar      1 <0>        -0.1669
     18 C13        -5.6487    1.9468   -4.2524 C.ar      1 <0>        -0.0214
     19 C14        -5.6242    1.5757   -2.9106 C.ar      1 <0>        -0.2004
     20 C15        -5.0948    0.2704   -2.4757 C.2       1 <0>         0.5749
     21 O3         -4.8952   -0.6134   -3.2867 O.2       1 <0>        -0.5252
     22 N3         -4.8340    0.0676   -1.1675 N.am      1 <0>        -0.7392
     23 H2          0.2706    4.4250   -0.7457 H         1 <0>         0.0974
     24 H3         -0.1758    4.9384    0.8991 H         1 <0>         0.0817
     25 H4          0.7387    3.4310    0.6547 H         1 <0>         0.0759
     26 H5         -2.5453    5.0012    0.6196 H         1 <0>         0.1502
     27 H6         -4.6576    3.7495    0.4362 H         1 <0>         0.1445
     28 H7         -2.4810    0.2237   -0.5738 H         1 <0>         0.1473
     29 H8         -6.7211    2.3721    0.0311 H         1 <0>         0.4175
     30 H9         -7.0028    4.3708   -1.5576 H         1 <0>         0.1312
     31 H10        -7.0399    5.0063   -3.9340 H         1 <0>         0.1307
     32 H11        -6.1782    3.4703   -5.6476 H         1 <0>         0.1305
     33 H12        -5.2724    1.2748   -5.0096 H         1 <0>         0.1359
     34 H13        -4.5368   -0.8069   -0.8713 H         1 <0>         0.4124
@<TRIPOS>BOND
     1    1    2 1
     2    1   23 1
     3    1   24 1
     4    1   25 1
     5    2    7 ar
     6    2    3 ar
     7    3    4 ar
     8    3   26 1
     9    4    5 ar
    10    4   27 1
    11    5    6 ar
    12    5   11 1
    13    6    7 ar
    14    6   28 1
    15    7    8 1
    16    8    9 2
    17    8   10 1
    18   11   12 1
    19   11   22 1
    20   11   13 1
    21   13   14 1
    22   13   29 1
    23   14   19 ar
    24   14   15 ar
    25   15   16 ar
    26   15   30 1
    27   16   17 ar
    28   16   31 1
    29   17   18 ar
    30   17   32 1
    31   18   19 ar
    32   18   33 1
    33   19   20 1
    34   20   21 2
    35   20   22 am
    36   22   34 1
@<TRIPOS>MOLECULE
ZINC35342789
   31    32     0     0     0
SMALL
USER_CHARGES

@<TRIPOS>ATOM
      1 C1         -0.1105    1.5007    0.0188 C.3       1 <0>        -0.1249
      2 C2         -0.0659   -0.0056    0.0083 C.ar      1 <0>        -0.0445
      3 C3         -0.3009   -0.6933   -1.1693 C.ar      1 <0>        -0.1312
      4 C4         -0.2617   -2.0719   -1.1862 C.ar      1 <0>        -0.0495
      5 C5          0.0164   -2.7737   -0.0111 C.ar      1 <0>        -0.1767
      6 C6          0.2531   -2.0732    1.1737 C.ar      1 <0>        -0.0779
      7 C7          0.2154   -0.6944    1.1751 C.ar      1 <0>        -0.1283
      8 C8          0.0597   -4.2509   -0.0214 C.2       1 <0>         0.4470
      9 O1         -0.0102   -4.8539   -1.0749 O.2       1 <0>        -0.4318
     10 C9          0.1875   -4.9937    1.2464 C.ar      1 <0>        -0.1456
     11 C10        -0.4132   -4.5029    2.4098 C.ar      1 <0>        -0.0189
     12 C11        -0.2931   -5.1982    3.5927 C.ar      1 <0>        -0.0744
     13 C12         0.4238   -6.3871    3.6335 C.ar      1 <0>         0.1777
     14 C13         1.0259   -6.8822    2.4771 C.ar      1 <0>         0.0810
     15 C14         0.9049   -6.1935    1.2865 C.ar      1 <0>        -0.0297
     16 O2          1.7279   -8.0462    2.5210 O.3       1 <0>        -0.4691
     17 O3          0.5391   -7.0686    4.8022 O.3       1 <0>        -0.4583
     18 N1         -0.9292   -4.6770    4.8234 N.pl3     1 <0>         0.0355
     19 O4         -1.5533   -3.6420    4.7895 O.2       1 <0>        -0.1581
     20 O5         -0.8247   -5.2861    5.8624 O.3       1 <0>        -0.1275
     21 H1          0.8814    1.8951   -0.2020 H         1 <0>         0.0786
     22 H2         -0.8160    1.8486   -0.7357 H         1 <0>         0.0728
     23 H3         -0.4290    1.8479    1.0017 H         1 <0>         0.0734
     24 H4         -0.5158   -0.1493   -2.0772 H         1 <0>         0.1335
     25 H5         -0.4459   -2.6075   -2.1058 H         1 <0>         0.1374
     26 H6          0.4687   -2.6097    2.0858 H         1 <0>         0.1312
     27 H7          0.4023   -0.1513    2.0897 H         1 <0>         0.1338
     28 H8         -0.9710   -3.5785    2.3810 H         1 <0>         0.1729
     29 H9          1.3669   -6.5781    0.3893 H         1 <0>         0.1634
     30 H10         1.1953   -8.8336    2.3438 H         1 <0>         0.3996
     31 H11        -0.1634   -7.7163    4.9507 H         1 <0>         0.4086
@<TRIPOS>BOND
     1    1    2 1
     2    1   21 1
     3    1   22 1
     4    1   23 1
     5    2    7 ar
     6    2    3 ar
     7    3    4 ar
     8    3   24 1
     9    4    5 ar
    10    4   25 1
    11    5    6 ar
    12    5    8 1
    13    6    7 ar
    14    6   26 1
    15    7   27 1
    16    8    9 2
    17    8   10 1
    18   10   15 ar
    19   10   11 ar
    20   11   12 ar
    21   11   28 1
    22   12   13 ar
    23   12   18 1
    24   13   14 ar
    25   13   17 1
    26   14   15 ar
    27   14   16 1
    28   15   29 1
    29   16   30 1
    30   17   31 1
    31   18   19 2
    32   18   20 1
@<TRIPOS>MOLECULE
ZINC43384157
   36    37     0     0     0
SMALL
USER_CHARGES

@<TRIPOS>ATOM
      1 C1         -0.0184    1.5028    0.0103 C.3       1 <0>        -0.0593
      2 C2          0.0021   -0.0041    0.0020 C.2       1 <0>        -0.2363
      3 C3         -1.0253   -0.8593    0.0018 C.2       1 <0>         0.0478
      4 N1         -0.7316   -2.1885   -0.0067 N.pl3     1 <0>        -0.6074
      5 H1         -1.4401   -2.8510   -0.0076 H         1 <0>         0.4208
      6 C4          0.5752   -2.5707   -0.0144 C.2       1 <0>         0.3791
      7 N2          1.0761   -3.8041   -0.0239 N.2       1 <0>        -0.6231
      8 C5          2.3994   -3.9876   -0.0304 C.2       1 <0>         0.6784
      9 O1          3.1481   -3.0257   -0.0277 O.2       1 <0>        -0.5944
     10 N3          2.9066   -5.2362   -0.0400 N.am      1 <0>        -0.7051
     11 C6          4.3577   -5.4375   -0.0472 C.3       1 <0>         0.2411
     12 H2          4.8308   -4.6500   -0.6339 H         1 <0>         0.0920
     13 C7          4.8860   -5.3916    1.3879 C.3       1 <0>        -0.1570
     14 C8          4.6759   -6.7783   -0.6570 C.2       1 <0>        -0.2497
     15 C9          3.7897   -7.8520   -0.7924 C.2       1 <0>         0.0576
     16 N4          4.4281   -8.8390   -1.3669 N.2       1 <0>        -0.2920
     17 N5          5.7427   -8.4240   -1.6156 N.pl3     1 <0>        -0.3716
     18 C10         5.8677   -7.1543   -1.1758 C.2       1 <0>         0.0988
     19 C11         7.1127   -6.3081   -1.2463 C.3       1 <0>        -0.0975
     20 C12         6.7944   -9.2249   -2.2471 C.3       1 <0>         0.0990
     21 S1          1.4028   -1.1071   -0.0179 S.3       1 <0>         0.1904
     22 H3          1.0042    1.8801    0.0026 H         1 <0>         0.0765
     23 H4         -0.5455    1.8639   -0.8728 H         1 <0>         0.0792
     24 H5         -0.5286    1.8543    0.9071 H         1 <0>         0.0793
     25 H6         -2.0472   -0.5098    0.0084 H         1 <0>         0.1866
     26 H7          2.3108   -6.0017   -0.0422 H         1 <0>         0.4020
     27 H8          4.4129   -6.1791    1.9746 H         1 <0>         0.0568
     28 H9          5.9657   -5.5413    1.3826 H         1 <0>         0.0645
     29 H10         4.6559   -4.4218    1.8290 H         1 <0>         0.0628
     30 H11         2.7568   -7.8641   -0.4771 H         1 <0>         0.1801
     31 H12         7.7033   -6.4546   -0.3419 H         1 <0>         0.0839
     32 H13         7.7015   -6.5998   -2.1159 H         1 <0>         0.0727
     33 H14         6.8339   -5.2579   -1.3319 H         1 <0>         0.0892
     34 H15         6.7699   -9.0711   -3.3259 H         1 <0>         0.0757
     35 H16         7.7661   -8.9198   -1.8586 H         1 <0>         0.0880
     36 H17         6.6298  -10.2795   -2.0265 H         1 <0>         0.0910
@<TRIPOS>BOND
     1    1    2 1
     2    1   22 1
     3    1   23 1
     4    1   24 1
     5    2   21 1
     6    2    3 2
     7    3    4 1
     8    3   25 1
     9    4    5 1
    10    4    6 1
    11    6    7 2
    12    6   21 1
    13    7    8 1
    14    8    9 2
    15    8   10 am
    16   10   11 1
    17   10   26 1
    18   11   12 1
    19   11   13 1
    20   11   14 1
    21   13   27 1
    22   13   28 1
    23   13   29 1
    24   14   18 2
    25   14   15 1
    26   15   16 2
    27   15   30 1
    28   16   17 1
    29   17   18 1
    30   17   20 1
    31   18   19 1
    32   19   31 1
    33   19   32 1
    34   19   33 1
    35   20   34 1
    36   20   35 1
    37   20   36 1
@<TRIPOS>MOLECULE
ZINC50016947
   28    29     0     0     0
SMALL
USER_CHARGES

@<TRIPOS>ATOM
      1 C1         -0.9333    1.4162   -0.0173 C.3       1 <0>        -0.1496
      2 C2         -0.5531   -0.0606   -0.1412 C.3       1 <0>        -0.0403
      3 C3         -1.7829   -0.9128    0.0391 C.2       1 <0>        -0.3212
      4 C4         -2.3053   -1.3658    1.2687 C.2       1 <0>         0.1568
      5 N1         -3.3791   -2.0774    1.0143 N.2       1 <0>        -0.2793
      6 O1         -3.5695   -2.0965   -0.3886 O.3       1 <0>        -0.0872
      7 C5         -2.5860   -1.3747   -0.9523 C.2       1 <0>         0.3641
      8 N2         -2.4195   -1.1458   -2.3060 N.pl3     1 <0>        -0.8130
      9 C6         -1.7405   -1.0875    2.6128 C.ar      1 <0>         0.0646
     10 C7         -0.4309   -1.4590    2.9107 C.ar      1 <0>        -0.1009
     11 C8          0.0906   -1.1980    4.1630 C.ar      1 <0>         0.1293
     12 C9         -0.6889   -0.5673    5.1227 C.ar      1 <0>         0.0862
     13 C10        -1.9906   -0.1977    4.8289 C.ar      1 <0>        -0.0611
     14 C11        -2.5163   -0.4492    3.5777 C.ar      1 <0>        -0.0146
     15 N3         -3.9057   -0.0468    3.2636 N.pl3     1 <0>         0.0296
     16 O2         -4.6170    0.3998    4.1333 O.2       1 <0>        -0.1459
     17 O3         -4.3293   -0.1648    2.1374 O.3       1 <0>        -0.1191
     18 F1         -0.1764   -0.3137    6.3467 F         1 <0>        -0.1033
     19 F2          1.3600   -1.5573    4.4540 F         1 <0>        -0.1013
     20 H1         -0.0439    2.0326   -0.1477 H         1 <0>         0.0591
     21 H2         -1.6658    1.6684   -0.7841 H         1 <0>         0.0564
     22 H3         -1.3613    1.5997    0.9683 H         1 <0>         0.0484
     23 H4         -0.1252   -0.2441   -1.1268 H         1 <0>         0.0701
     24 H5          0.1793   -0.3128    0.6256 H         1 <0>         0.0692
     25 H6         -1.6732   -0.6113   -2.6194 H         1 <0>         0.4265
     26 H7         -3.0490   -1.5199   -2.9422 H         1 <0>         0.4146
     27 H8          0.1752   -1.9504    2.1640 H         1 <0>         0.1780
     28 H9         -2.5940    0.2926    5.5785 H         1 <0>         0.1838
@<TRIPOS>BOND
     1    1    2 1
     2    1   20 1
     3    1   21 1
     4    1   22 1
     5    2    3 1
     6    2   23 1
     7    2   24 1
     8    3    7 2
     9    3    4 1
    10    4    5 2
    11    4    9 1
    12    5    6 1
    13    6    7 1
    14    7    8 1
    15    8   25 1
    16    8   26 1
    17    9   14 ar
    18    9   10 ar
    19   10   11 ar
    20   10   27 1
    21   11   12 ar
    22   11   19 1
    23   12   13 ar
    24   12   18 1
    25   13   14 ar
    26   13   28 1
    27   14   15 1
    28   15   16 2
    29   15   17 1
@<TRIPOS>MOLECULE
ZINC43671026
   35    36     0     0     0
SMALL
USER_CHARGES

@<TRIPOS>ATOM
      1 C1         -0.0187    1.5258    0.0104 C.3       1 <0>        -0.1485
      2 C2          0.0021   -0.0041    0.0020 C.3       1 <0>        -0.0449
      3 C3          0.7074   -0.4901   -1.2379 C.2       1 <0>        -0.1316
      4 C4          2.0229   -0.7610   -1.4208 C.2       1 <0>        -0.1728
      5 C5          2.4507   -1.2017   -2.6591 C.2       1 <0>        -0.1224
      6 C6          1.5420   -1.3499   -3.6540 C.2       1 <0>        -0.1973
      7 S1          0.0261   -0.8658   -2.8447 S.3       1 <0>         0.1059
      8 C7          1.7552   -1.8094   -5.0733 C.3       1 <0>         0.2588
      9 H1          2.8113   -2.0296   -5.2291 H         1 <0>         0.1153
     10 C8          1.3166   -0.7058   -6.0380 C.3       1 <0>        -0.1614
     11 N1          0.9630   -3.0168   -5.3199 N.pl3     1 <0>        -0.3794
     12 C9          1.4480   -4.2271   -5.6795 C.2       1 <0>         0.4396
     13 C10         0.3883   -5.0726   -5.8078 C.2       1 <0>        -0.2612
     14 C11        -0.7725   -4.3506   -5.5166 C.2       1 <0>         0.1576
     15 N2         -0.4299   -3.1235   -5.2190 N.2       1 <0>        -0.2629
     16 C12        -2.1779   -4.8944   -5.5355 C.3       1 <0>        -0.0874
     17 N3          0.4541   -6.5017   -6.1884 N.pl3     1 <0>         0.0614
     18 O1          0.5699   -7.3499   -5.3346 O.2       1 <0>        -0.1421
     19 O2          0.3919   -6.8206   -7.3529 O.3       1 <0>        -0.1423
     20 N4          2.7869   -4.5496   -5.8822 N.pl3     1 <0>        -0.8406
     21 H2          1.0039    1.9031    0.0027 H         1 <0>         0.0591
     22 H3         -0.5459    1.8868   -0.8726 H         1 <0>         0.0583
     23 H4         -0.5289    1.8773    0.9072 H         1 <0>         0.0664
     24 H5          0.5293   -0.3651    0.8851 H         1 <0>         0.0879
     25 H6         -1.0205   -0.3814    0.0098 H         1 <0>         0.0811
     26 H7          2.7264   -0.6342   -0.6112 H         1 <0>         0.1344
     27 H8          3.4933   -1.4243   -2.8315 H         1 <0>         0.1317
     28 H9          0.2605   -0.4856   -5.8821 H         1 <0>         0.0796
     29 H10         1.9060    0.1925   -5.8545 H         1 <0>         0.0872
     30 H11         1.4708   -1.0382   -7.0646 H         1 <0>         0.0726
     31 H12        -2.4296   -5.2850   -4.5495 H         1 <0>         0.0920
     32 H13        -2.8726   -4.0968   -5.7985 H         1 <0>         0.0916
     33 H14        -2.2479   -5.6948   -6.2720 H         1 <0>         0.0800
     34 H15         3.4719   -3.8727   -5.7654 H         1 <0>         0.4115
     35 H16         3.0350   -5.4512   -6.1401 H         1 <0>         0.4229
@<TRIPOS>BOND
     1    1    2 1
     2    1   21 1
     3    1   22 1
     4    1   23 1
     5    2    3 1
     6    2   24 1
     7    2   25 1
     8    3    7 1
     9    3    4 2
    10    4    5 1
    11    4   26 1
    12    5    6 2
    13    5   27 1
    14    6    7 1
    15    6    8 1
    16    8    9 1
    17    8   10 1
    18    8   11 1
    19   10   28 1
    20   10   29 1
    21   10   30 1
    22   11   15 1
    23   11   12 1
    24   12   13 2
    25   12   20 1
    26   13   14 1
    27   13   17 1
    28   14   15 2
    29   14   16 1
    30   16   31 1
    31   16   32 1
    32   16   33 1
    33   17   18 2
    34   17   19 1
    35   20   34 1
    36   20   35 1
@<TRIPOS>MOLECULE
ZINC35224305
   43    44     0     0     0
SMALL
USER_CHARGES

@<TRIPOS>ATOM
      1 C1         -1.0157    0.4089   -0.2317 C.3       1 <0>        -0.1884
      2 C2         -0.1644   -0.8230    0.0825 C.3       1 <0>         0.0722
      3 H1         -0.8083   -1.6298    0.4328 H         1 <0>         0.1543
      4 C3          0.5605   -1.2636   -1.1630 C.ar      1 <0>        -0.1641
      5 C4          1.7162   -0.6146   -1.5563 C.ar      1 <0>        -0.0702
      6 C5          2.3811   -1.0187   -2.6986 C.ar      1 <0>        -0.1192
      7 C6          1.8908   -2.0722   -3.4478 C.ar      1 <0>         0.0068
      8 C7          0.7359   -2.7215   -3.0541 C.ar      1 <0>        -0.6653
      9 C8          0.0732   -2.3201   -1.9091 C.ar      1 <0>         0.0150
     10 S1          0.1107   -4.0638   -4.0092 S.o2      1 <0>         2.6981
     11 O1         -1.2797   -4.1487   -3.7288 O.2       1 <0>        -0.9517
     12 O2          0.6131   -3.8929   -5.3274 O.2       1 <0>        -0.9446
     13 N1          0.7985   -5.4487   -3.4164 N.pl3     1 <0>        -1.2449
     14 N2          0.8138   -0.4890    1.1262 N.4       1 <0>        -0.5158
     15 C9          0.1113   -0.2220    2.3885 C.3       1 <0>         0.0125
     16 H2         -0.8531   -0.7299    2.3853 H         1 <0>         0.1766
     17 C10        -0.1017    1.2851    2.5497 C.3       1 <0>        -0.1468
     18 C11         1.0686    2.0585    1.9699 C.3       1 <0>        -0.1439
     19 C12         2.3688    1.8623    2.7280 C.3       1 <0>        -0.1616
     20 C13         2.8715    0.4244    2.5853 C.3       1 <0>         0.0873
     21 N3          2.2409   -0.4007    3.6285 N.am      1 <0>        -0.7187
     22 C14         0.9451   -0.7205    3.5500 C.2       1 <0>         0.5040
     23 O3          0.4341   -1.4051    4.4109 O.2       1 <0>        -0.4799
     24 H3         -0.3874    1.1812   -0.6755 H         1 <0>         0.0852
     25 H4         -1.8052    0.1360   -0.9319 H         1 <0>         0.1145
     26 H5         -1.4609    0.7872    0.6885 H         1 <0>         0.0934
     27 H6          2.0992    0.2083   -0.9711 H         1 <0>         0.1254
     28 H7          3.2835   -0.5112   -3.0062 H         1 <0>         0.1506
     29 H8          2.4099   -2.3874   -4.3408 H         1 <0>         0.1581
     30 H9         -0.8271   -2.8299   -1.5994 H         1 <0>         0.1561
     31 H10         0.3170   -6.2892   -3.4666 H         1 <0>         0.4278
     32 H11         1.6829   -5.4193   -3.0190 H         1 <0>         0.4176
     33 H12         1.4490   -1.2628    1.2520 H         1 <0>         0.4297
     34 H13        -1.0158    1.5758    2.0319 H         1 <0>         0.1163
     35 H14        -0.1992    1.5225    3.6091 H         1 <0>         0.1196
     36 H15         1.2170    1.7428    0.9372 H         1 <0>         0.0554
     37 H16         0.8204    3.1199    1.9737 H         1 <0>         0.1139
     38 H17         3.1206    2.5456    2.3331 H         1 <0>         0.1045
     39 H18         2.2051    2.0817    3.7830 H         1 <0>         0.0985
     40 H19         2.6027    0.0388    1.6019 H         1 <0>         0.0462
     41 H20         3.9545    0.4019    2.7062 H         1 <0>         0.1238
     42 H21         2.7696   -0.7172    4.3777 H         1 <0>         0.4262
     43 H22         1.3332    0.3310    0.8504 H         1 <0>         0.4251
@<TRIPOS>BOND
     1    1    2 1
     2    1   24 1
     3    1   25 1
     4    1   26 1
     5    2    3 1
     6    2    4 1
     7    2   14 1
     8    4    9 ar
     9    4    5 ar
    10    5    6 ar
    11    5   27 1
    12    6    7 ar
    13    6   28 1
    14    7    8 ar
    15    7   29 1
    16    8    9 ar
    17    8   10 1
    18    9   30 1
    19   10   11 2
    20   10   12 2
    21   10   13 1
    22   13   31 1
    23   13   32 1
    24   14   15 1
    25   14   33 1
    26   14   43 1
    27   15   16 1
    28   15   22 1
    29   15   17 1
    30   17   18 1
    31   17   34 1
    32   17   35 1
    33   18   19 1
    34   18   36 1
    35   18   37 1
    36   19   20 1
    37   19   38 1
    38   19   39 1
    39   20   21 1
    40   20   40 1
    41   20   41 1
    42   21   22 am
    43   21   42 1
    44   22   23 2
@<TRIPOS>MOLECULE
ZINC41684328
   49    49     0     0     0
SMALL
USER_CHARGES

@<TRIPOS>ATOM
      1 C1          2.4742   -0.3012    2.9009 C.3       1 <0>        -0.1901
      2 C2          2.8471   -1.7713    2.6995 C.3       1 <0>        -0.0245
      3 N1          1.6233   -2.5767    2.5926 N.4       1 <0>        -0.3804
      4 C3          0.7978   -2.3746    3.7908 C.3       1 <0>        -0.0182
      5 C4          1.5448   -2.8984    5.0190 C.3       1 <0>        -0.1880
      6 C5          0.8679   -2.1639    1.4023 C.3       1 <0>        -0.0284
      7 C6          1.6670   -2.5123    0.1449 C.3       1 <0>         0.1239
      8 H1          2.6516   -2.0479    0.1999 H         1 <0>         0.1085
      9 C7          1.8242   -4.0309    0.0451 C.3       1 <0>        -0.1878
     10 N2          0.9582   -2.0160   -1.0373 N.am      1 <0>        -0.7297
     11 C8          1.6260   -1.8240   -2.1921 C.2       1 <0>         0.5415
     12 O1          2.7918   -2.1469   -2.2794 O.2       1 <0>        -0.4981
     13 C9          0.9242   -1.2081   -3.3750 C.3       1 <0>        -0.0183
     14 C10        -0.3366   -2.0196   -3.7210 C.3       1 <0>        -0.1154
     15 C11        -0.1458   -2.5373   -5.1616 C.3       1 <0>        -0.1243
     16 C12         1.3899   -2.5428   -5.3630 C.3       1 <0>        -0.1267
     17 C13         1.8371   -1.2610   -4.6174 C.3       1 <0>        -0.1065
     18 C14         0.5523    0.2197   -3.0681 C.2       1 <0>         0.3680
     19 N3          0.9524    1.1723   -3.8434 N.2       1 <0>        -0.3904
     20 O2          0.6029    2.5139   -3.5551 O.3       1 <0>        -0.4200
     21 N4         -0.2142    0.5088   -1.9610 N.pl3     1 <0>        -0.8727
     22 H2          1.8271   -0.2066    3.7729 H         1 <0>         0.0843
     23 H3          3.3798    0.2856    3.0551 H         1 <0>         0.1080
     24 H4          1.9500    0.0649    2.0181 H         1 <0>         0.0792
     25 H5          3.4319   -1.8759    1.7857 H         1 <0>         0.1322
     26 H6          3.4361   -2.1164    3.5493 H         1 <0>         0.1368
     27 H7          0.5933   -1.3113    3.9161 H         1 <0>         0.1346
     28 H8         -0.1424   -2.9147    3.6797 H         1 <0>         0.1320
     29 H9          0.8966   -2.8347    5.8930 H         1 <0>         0.1080
     30 H10         1.8316   -3.9370    4.8543 H         1 <0>         0.0807
     31 H11         2.4384   -2.2966    5.1848 H         1 <0>         0.0821
     32 H12        -0.0892   -2.6850    1.3805 H         1 <0>         0.1396
     33 H13         0.6952   -1.0882    1.4365 H         1 <0>         0.1394
     34 H14         0.8396   -4.4953   -0.0098 H         1 <0>         0.0778
     35 H15         2.3935   -4.2792   -0.8507 H         1 <0>         0.0942
     36 H16         2.3515   -4.4002    0.9247 H         1 <0>         0.0633
     37 H17         0.0083   -1.8256   -0.9889 H         1 <0>         0.4025
     38 H18        -0.4408   -2.8589   -3.0333 H         1 <0>         0.0756
     39 H19        -1.2181   -1.3808   -3.6674 H         1 <0>         0.0831
     40 H20        -0.5472   -3.5458   -5.2608 H         1 <0>         0.0762
     41 H21        -0.6217   -1.8644   -5.8749 H         1 <0>         0.0765
     42 H22         1.8357   -3.4285   -4.9102 H         1 <0>         0.0698
     43 H23         1.6408   -2.4812   -6.4220 H         1 <0>         0.0806
     44 H24         1.6814   -0.3819   -5.2428 H         1 <0>         0.1016
     45 H25         2.8827   -1.3381   -4.3195 H         1 <0>         0.0915
     46 H26         0.9476    3.1555   -4.1911 H         1 <0>         0.4082
     47 H27        -0.4573   -0.1970   -1.3416 H         1 <0>         0.3818
     48 H28        -0.5109    1.4183   -1.8006 H         1 <0>         0.4129
     49 H29         1.8684   -3.5523    2.5137 H         1 <0>         0.4248
@<TRIPOS>BOND
     1    1    2 1
     2    1   22 1
     3    1   23 1
     4    1   24 1
     5    2    3 1
     6    2   25 1
     7    2   26 1
     8    3    4 1
     9    3    6 1
    10    3   49 1
    11    4    5 1
    12    4   27 1
    13    4   28 1
    14    5   29 1
    15    5   30 1
    16    5   31 1
    17    6    7 1
    18    6   32 1
    19    6   33 1
    20    7    8 1
    21    7    9 1
    22    7   10 1
    23    9   34 1
    24    9   35 1
    25    9   36 1
    26   10   11 am
    27   10   37 1
    28   11   12 2
    29   11   13 1
    30   13   17 1
    31   13   14 1
    32   13   18 1
    33   14   15 1
    34   14   38 1
    35   14   39 1
    36   15   16 1
    37   15   40 1
    38   15   41 1
    39   16   17 1
    40   16   42 1
    41   16   43 1
    42   17   44 1
    43   17   45 1
    44   18   19 2
    45   18   21 1
    46   19   20 1
    47   20   46 1
    48   21   47 1
    49   21   48 1
@<TRIPOS>MOLECULE
ZINC49563198
   43    45     0     0     0
SMALL
USER_CHARGES

@<TRIPOS>ATOM
      1 C1         -0.0167    1.3779    0.0096 C.ar      1 <0>        -0.0577
      2 C2          1.1695    2.0895    0.0021 C.ar      1 <0>        -0.1135
      3 C3          2.3802    1.4178   -0.0135 C.ar      1 <0>         0.0923
      4 C4          2.4000    0.0244   -0.0212 C.ar      1 <0>         0.1802
      5 C5          1.2068   -0.6824   -0.0132 C.ar      1 <0>        -0.1026
      6 C6          0.0021   -0.0041    0.0020 C.ar      1 <0>        -0.6439
      7 S1         -1.5130   -0.9036    0.0123 S.o2      1 <0>         2.6914
      8 O1         -1.2210   -2.1847    0.5534 O.2       1 <0>        -0.9423
      9 O2         -2.4924   -0.0431    0.5775 O.2       1 <0>        -0.9355
     10 N1         -1.9497   -1.1451   -1.5667 N.pl3     1 <0>        -1.1046
     11 C7         -1.1171   -1.9783   -2.4378 C.3       1 <0>         0.1397
     12 H1         -0.0889   -2.0089   -2.0774 H         1 <0>         0.1219
     13 C8         -1.7046   -3.4113   -2.5623 C.3       1 <0>        -0.1650
     14 C9         -1.5017   -3.7992   -4.0475 C.3       1 <0>        -0.0072
     15 N2         -0.7631   -2.6906   -4.6544 N.4       1 <0>        -0.3898
     16 C10        -1.1749   -1.4814   -3.8927 C.3       1 <0>         0.0244
     17 H2         -2.1872   -1.1779   -4.1598 H         1 <0>         0.1524
     18 C11        -0.1682   -0.3819   -4.2027 C.3       1 <0>        -0.1413
     19 C12        -0.2765   -0.0674   -5.7033 C.3       1 <0>        -0.1386
     20 C13        -0.0711   -1.3338   -6.5338 C.3       1 <0>        -0.1486
     21 C14        -1.0193   -2.4513   -6.0669 C.3       1 <0>        -0.0015
     22 N3          3.6208   -0.6599   -0.0375 N.pl3     1 <0>        -0.8686
     23 O3          3.5472    2.1162   -0.0218 O.3       1 <0>        -0.4924
     24 H3         -0.9599    1.9036    0.0260 H         1 <0>         0.1447
     25 H4          1.1513    3.1693    0.0081 H         1 <0>         0.1436
     26 H5          1.2186   -1.7623   -0.0191 H         1 <0>         0.1404
     27 H6         -2.7568   -0.7349   -1.9149 H         1 <0>         0.4277
     28 H7         -1.1637   -4.1002   -1.9135 H         1 <0>         0.1189
     29 H8         -2.7657   -3.4088   -2.3129 H         1 <0>         0.1172
     30 H9         -0.9233   -4.7202   -4.1197 H         1 <0>         0.1379
     31 H10        -2.4668   -3.9214   -4.5391 H         1 <0>         0.1340
     32 H11        -0.4017    0.5091   -3.6199 H         1 <0>         0.1175
     33 H12         0.8393   -0.7254   -3.9681 H         1 <0>         0.0923
     34 H13        -1.2634    0.3444   -5.9139 H         1 <0>         0.0838
     35 H14         0.4834    0.6661   -5.9725 H         1 <0>         0.0967
     36 H15        -0.2681   -1.1112   -7.5825 H         1 <0>         0.1139
     37 H16         0.9602   -1.6700   -6.4266 H         1 <0>         0.0880
     38 H17        -0.8268   -3.3607   -6.6361 H         1 <0>         0.1327
     39 H18        -2.0546   -2.1400   -6.2066 H         1 <0>         0.1301
     40 H19         4.4546   -0.1643   -0.0435 H         1 <0>         0.4079
     41 H20         3.6331   -1.6298   -0.0428 H         1 <0>         0.4030
     42 H21         3.8937    2.3137    0.8591 H         1 <0>         0.3974
     43 H22         0.2258   -2.8351   -4.5153 H         1 <0>         0.4229
@<TRIPOS>BOND
     1    1    6 ar
     2    1    2 ar
     3    1   24 1
     4    2    3 ar
     5    2   25 1
     6    3    4 ar
     7    3   23 1
     8    4    5 ar
     9    4   22 1
    10    5    6 ar
    11    5   26 1
    12    6    7 1
    13    7    8 2
    14    7    9 2
    15    7   10 1
    16   10   11 1
    17   10   27 1
    18   11   12 1
    19   11   16 1
    20   11   13 1
    21   13   14 1
    22   13   28 1
    23   13   29 1
    24   14   15 1
    25   14   30 1
    26   14   31 1
    27   15   21 1
    28   15   16 1
    29   15   43 1
    30   16   17 1
    31   16   18 1
    32   18   19 1
    33   18   32 1
    34   18   33 1
    35   19   20 1
    36   19   34 1
    37   19   35 1
    38   20   21 1
    39   20   36 1
    40   20   37 1
    41   21   38 1
    42   21   39 1
    43   22   40 1
    44   22   41 1
    45   23   42 1
@<TRIPOS>MOLECULE
ZINC37860009
   49    49     0     0     0
SMALL
USER_CHARGES

@<TRIPOS>ATOM
      1 C1         -0.0187    1.5258    0.0104 C.3       1 <0>        -0.1857
      2 C2          0.0021   -0.0041    0.0020 C.3       1 <0>         0.0739
      3 H1          0.5123   -0.3556   -0.8948 H         1 <0>         0.1142
      4 C3         -1.4117   -0.5257    0.0127 C.2       1 <0>         0.5174
      5 O1         -1.7901   -1.2329    0.9218 O.2       1 <0>        -0.4426
      6 N1         -2.2556   -0.2060   -0.9884 N.am      1 <0>        -0.6925
      7 C4         -3.5200   -0.6725   -0.9788 C.2       1 <0>         0.6956
      8 O2         -3.8993   -1.3815   -0.0674 O.2       1 <0>        -0.5313
      9 N2         -4.3638   -0.3528   -1.9799 N.am      1 <0>        -0.8556
     10 N3          0.7126   -0.4907    1.1921 N.3       1 <0>        -0.6683
     11 C5          2.1624   -0.5325    0.9593 C.3       1 <0>         0.0637
     12 C6          2.8665   -1.0431    2.2180 C.3       1 <0>        -0.1493
     13 C7          4.3766   -1.0867    1.9755 C.3       1 <0>        -0.0128
     14 N4          5.0527   -1.5770    3.1840 N.4       1 <0>        -0.3834
     15 C8          4.6589   -2.9699    3.4344 C.3       1 <0>        -0.0568
     16 C9          6.5076   -1.5060    2.9941 C.3       1 <0>         0.0254
     17 C10         7.2118   -2.0166    4.2528 C.3       1 <0>        -0.1411
     18 C11         8.7271   -1.9427    4.0550 C.3       1 <0>        -0.1177
     19 C12         9.1372   -0.4919    3.7941 C.3       1 <0>        -0.1319
     20 C13         8.4330    0.0187    2.5354 C.3       1 <0>        -0.1175
     21 C14         6.9177   -0.0552    2.7332 C.3       1 <0>        -0.1411
     22 H2          1.0039    1.9031    0.0027 H         1 <0>         0.0723
     23 H3         -0.5459    1.8868   -0.8726 H         1 <0>         0.0753
     24 H4         -0.5289    1.8773    0.9072 H         1 <0>         0.0705
     25 H5         -1.9529    0.3598   -1.7158 H         1 <0>         0.4090
     26 H6         -4.0611    0.2130   -2.7073 H         1 <0>         0.4007
     27 H7         -5.2738   -0.6886   -1.9730 H         1 <0>         0.4233
     28 H8          0.4922    0.0720    2.0001 H         1 <0>         0.3553
     29 H9          2.3774   -1.2015    0.1260 H         1 <0>         0.0855
     30 H10         2.5215    0.4691    0.7231 H         1 <0>         0.0451
     31 H11         2.6515   -0.3742    3.0513 H         1 <0>         0.0873
     32 H12         2.5074   -2.0448    2.4542 H         1 <0>         0.1001
     33 H13         4.5916   -1.7557    1.1422 H         1 <0>         0.1313
     34 H14         4.7357   -0.0851    1.7393 H         1 <0>         0.1322
     35 H15         4.9447   -3.5870    2.5826 H         1 <0>         0.1229
     36 H16         5.1606   -3.3337    4.3312 H         1 <0>         0.1259
     37 H17         3.5793   -3.0226    3.5754 H         1 <0>         0.1279
     38 H18         6.7933   -2.1231    2.1422 H         1 <0>         0.1363
     39 H19         6.9260   -1.3995    5.1046 H         1 <0>         0.0861
     40 H20         6.9196   -3.0501    4.4386 H         1 <0>         0.0885
     41 H21         9.2288   -2.3064    4.9517 H         1 <0>         0.0848
     42 H22         9.0129   -2.5598    3.2031 H         1 <0>         0.0742
     43 H23         8.8515    0.1252    4.6460 H         1 <0>         0.0701
     44 H24        10.2168   -0.4392    3.6532 H         1 <0>         0.0794
     45 H25         8.7252    1.0522    2.3496 H         1 <0>         0.0843
     46 H26         8.7188   -0.5984    1.6836 H         1 <0>         0.0742
     47 H27         6.4160    0.3085    1.8365 H         1 <0>         0.0865
     48 H28         6.6319    0.5619    3.5851 H         1 <0>         0.0861
     49 H29         4.7881   -1.0057    3.9725 H         1 <0>         0.4223
@<TRIPOS>BOND
     1    1    2 1
     2    1   22 1
     3    1   23 1
     4    1   24 1
     5    2    3 1
     6    2    4 1
     7    2   10 1
     8    4    5 2
     9    4    6 am
    10    6    7 am
    11    6   25 1
    12    7    8 2
    13    7    9 am
    14    9   26 1
    15    9   27 1
    16   10   11 1
    17   10   28 1
    18   11   12 1
    19   11   29 1
    20   11   30 1
    21   12   13 1
    22   12   31 1
    23   12   32 1
    24   13   14 1
    25   13   33 1
    26   13   34 1
    27   14   15 1
    28   14   16 1
    29   14   49 1
    30   15   35 1
    31   15   36 1
    32   15   37 1
    33   16   21 1
    34   16   17 1
    35   16   38 1
    36   17   18 1
    37   17   39 1
    38   17   40 1
    39   18   19 1
    40   18   41 1
    41   18   42 1
    42   19   20 1
    43   19   43 1
    44   19   44 1
    45   20   21 1
    46   20   45 1
    47   20   46 1
    48   21   47 1
    49   21   48 1
@<TRIPOS>MOLECULE
ZINC63129597
   40    42     0     0     0
SMALL
USER_CHARGES

@<TRIPOS>ATOM
      1 C1          0.1521    1.3507    0.4473 C.ar      1 <0>        -0.1648
      2 C2          1.3678    2.0102    0.4493 C.ar      1 <0>        -0.0652
      3 C3          2.5399    1.3051    0.2804 C.ar      1 <0>        -0.1677
      4 C4          2.5095   -0.0803    0.1059 C.ar      1 <0>         0.2301
      5 C5          1.2861   -0.7316    0.1059 C.ar      1 <0>        -0.1702
      6 C6          0.1138   -0.0204    0.2756 C.ar      1 <0>        -0.0587
      7 C7          1.5284   -2.2101   -0.0990 C.3       1 <0>        -0.0340
      8 H1          1.0450   -2.5514   -1.0144 H         1 <0>         0.1032
      9 C8          3.0557   -2.3385   -0.2190 C.3       1 <0>         0.1367
     10 N1          3.5680   -0.9727   -0.0797 N.pl3     1 <0>        -0.5652
     11 C9          4.9049   -0.6188   -0.1248 C.ar      1 <0>         0.4152
     12 C10         5.4993   -0.2877   -1.3548 C.ar      1 <0>        -0.1836
     13 C11         6.8528    0.0670   -1.3752 C.ar      1 <0>        -0.0370
     14 C12         7.5482    0.0759   -0.1789 C.ar      1 <0>        -0.1683
     15 C13         6.8940   -0.2624    0.9922 C.ar      1 <0>         0.1407
     16 N2          5.6163   -0.5886    0.9915 N.ar      1 <0>        -0.4907
     17 C14         4.7112   -0.3141   -2.6006 C.2       1 <0>         0.5641
     18 O1          3.5134   -0.5192   -2.5581 O.2       1 <0>        -0.5157
     19 N3          5.3185   -0.1109   -3.7865 N.am      1 <0>        -0.8484
     20 C15         1.0160   -3.0065    1.1028 C.3       1 <0>        -0.1421
     21 C16         1.1444   -4.5036    0.8147 C.3       1 <0>        -0.0133
     22 N4          0.7554   -5.2670    2.0080 N.4       1 <0>        -0.6374
     23 H2         -0.7647    1.9050    0.5839 H         1 <0>         0.1265
     24 H3          1.3987    3.0814    0.5833 H         1 <0>         0.1268
     25 H4          3.4859    1.8261    0.2826 H         1 <0>         0.1107
     26 H5         -0.8348   -0.5368    0.2738 H         1 <0>         0.1199
     27 H6          3.4457   -2.9718    0.5779 H         1 <0>         0.0630
     28 H7          3.3256   -2.7461   -1.1932 H         1 <0>         0.0749
     29 H8          7.3427    0.3270   -2.3019 H         1 <0>         0.1464
     30 H9          8.5941    0.3445   -0.1597 H         1 <0>         0.1526
     31 H10         7.4386   -0.2548    1.9248 H         1 <0>         0.1705
     32 H11         6.2740    0.0527   -3.8204 H         1 <0>         0.4010
     33 H12         4.8000   -0.1282   -4.6061 H         1 <0>         0.4104
     34 H13         1.6057   -2.7541    1.9840 H         1 <0>         0.0919
     35 H14        -0.0303   -2.7596    1.2828 H         1 <0>         0.0972
     36 H15         0.4919   -4.7710   -0.0164 H         1 <0>         0.1380
     37 H16         2.1772   -4.7364    0.5552 H         1 <0>         0.1324
     38 H17         0.8401   -6.2543    1.8180 H         1 <0>         0.4384
     39 H18         1.3595   -5.0195    2.7773 H         1 <0>         0.4356
     40 H19        -0.2006   -5.0516    2.2482 H         1 <0>         0.4362
@<TRIPOS>BOND
     1    1    6 ar
     2    1    2 ar
     3    1   23 1
     4    2    3 ar
     5    2   24 1
     6    3    4 ar
     7    3   25 1
     8    4   10 1
     9    4    5 ar
    10    5    6 ar
    11    5    7 1
    12    6   26 1
    13    7    8 1
    14    7    9 1
    15    7   20 1
    16    9   10 1
    17    9   27 1
    18    9   28 1
    19   10   11 1
    20   11   16 ar
    21   11   12 ar
    22   12   13 ar
    23   12   17 1
    24   13   14 ar
    25   13   29 1
    26   14   15 ar
    27   14   30 1
    28   15   16 ar
    29   15   31 1
    30   17   18 2
    31   17   19 am
    32   19   32 1
    33   19   33 1
    34   20   21 1
    35   20   34 1
    36   20   35 1
    37   21   22 1
    38   21   36 1
    39   21   37 1
    40   22   38 1
    41   22   39 1
    42   22   40 1
@<TRIPOS>MOLECULE
ZINC29575658
   53    54     0     0     0
SMALL
USER_CHARGES
3-(3-ethoxypropyl)-2-[2-[(2R)-2-methyl-4-oxo-3,5-dihydro-2H-1,5-benzodiazepin-1-yl]-2-oxo-ethyl]isothiourea
@<TRIPOS>ATOM
      1 C1         -6.1534   -1.3110    6.1642 C.3       1 <0>        -0.1573
      2 C2         -5.0354   -0.4818    6.7992 C.3       1 <0>         0.0571
      3 O1         -4.5534    0.4730    5.8515 O.3       1 <0>        -0.3874
      4 C3         -3.5013    1.3034    6.3469 C.3       1 <0>         0.0613
      5 C4         -3.0660    2.2816    5.2538 C.3       1 <0>        -0.1410
      6 C5         -1.9395    3.1707    5.7842 C.3       1 <0>         0.0824
      7 N1         -1.5228    4.1073    4.7376 N.pl3     1 <0>        -0.6548
      8 C6         -1.7139    5.3879    4.8946 C.cat     1 <0>         0.4555
      9 N2         -2.2346    5.8660    6.0748 N.pl3     1 <0>        -0.7993
     10 S1         -1.3054    6.5055    3.5951 S.3       1 <0>         0.1634
     11 C7         -0.6922    5.3367    2.3565 C.3       1 <0>        -0.2030
     12 C8         -0.2723    6.0892    1.1202 C.2       1 <0>         0.5498
     13 O2         -0.3774    7.2970    1.0804 O.2       1 <0>        -0.4969
     14 N3          0.2198    5.4203    0.0587 N.am      1 <0>        -0.5510
     15 C9          0.3471    4.0246    0.0905 C.ar      1 <0>         0.0795
     16 C10        -0.7715    3.2111    0.0122 C.ar      1 <0>        -0.1037
     17 C11        -0.6231    1.8364    0.0018 C.ar      1 <0>        -0.1160
     18 C12         0.6362    1.2703    0.0835 C.ar      1 <0>        -0.0823
     19 C13         1.7569    2.0752    0.1757 C.ar      1 <0>        -0.1211
     20 C14         1.6166    3.4529    0.1837 C.ar      1 <0>         0.1560
     21 N4          2.7328    4.2882    0.3093 N.am      1 <0>        -0.6935
     22 C15         2.9037    5.3353   -0.5274 C.2       1 <0>         0.5280
     23 O3          3.8315    6.0975   -0.3566 O.2       1 <0>        -0.5108
     24 C16         1.9498    5.5626   -1.6702 C.3       1 <0>        -0.1558
     25 C17         0.6317    6.1377   -1.1490 C.3       1 <0>         0.1465
     26 H1          0.7589    7.1932   -0.8666 H         1 <0>         0.1175
     27 C18        -0.4485    5.9862   -2.2219 C.3       1 <0>        -0.1641
     28 H2         -6.5244   -2.0459    6.8937 H         1 <0>         0.0783
     29 H3         -5.7632   -1.8366    5.2802 H         1 <0>         0.0656
     30 H4         -6.9764   -0.6466    5.8621 H         1 <0>         0.0652
     31 H5         -5.4256    0.0438    7.6832 H         1 <0>         0.0529
     32 H6         -4.2124   -1.1462    7.1013 H         1 <0>         0.0538
     33 H7         -3.8595    1.8664    7.2214 H         1 <0>         0.0545
     34 H8         -2.6462    0.6764    6.6396 H         1 <0>         0.0584
     35 H9         -2.7079    1.7185    4.3793 H         1 <0>         0.0920
     36 H10        -3.9211    2.9086    4.9611 H         1 <0>         0.0860
     37 H11        -2.2976    3.7337    6.6587 H         1 <0>         0.0974
     38 H12        -1.0844    2.5437    6.0769 H         1 <0>         0.1199
     39 H13        -2.3958    6.9460    6.2073 H         1 <0>         0.4748
     40 H14        -2.4897    5.1683    6.8860 H         1 <0>         0.4521
     41 H15         0.1710    4.7900    2.7639 H         1 <0>         0.1419
     42 H16        -1.4893    4.6238    2.0988 H         1 <0>         0.1447
     43 H17        -1.7568    3.6496   -0.0442 H         1 <0>         0.1342
     44 H18        -1.4944    1.2020   -0.0667 H         1 <0>         0.1379
     45 H19         0.7450    0.1959    0.0707 H         1 <0>         0.1391
     46 H20         2.7390    1.6306    0.2410 H         1 <0>         0.1404
     47 H21         3.4792    4.0945    1.0938 H         1 <0>         0.4382
     48 H22         2.3952    6.2710   -2.3842 H         1 <0>         0.1267
     49 H23         1.7509    4.6070   -2.1775 H         1 <0>         0.1013
     50 H24        -0.1409    6.5246   -3.1305 H         1 <0>         0.0845
     51 H25        -1.3955    6.4048   -1.8504 H         1 <0>         0.0692
     52 H26        -0.5857    4.9202   -2.4561 H         1 <0>         0.0671
     53 H27        -1.0487    3.7305    3.8193 H         1 <0>         0.4646
@<TRIPOS>BOND
     1    1    2 1
     2    1   28 1
     3    1   29 1
     4    1   30 1
     5    2    3 1
     6    2   31 1
     7    2   32 1
     8    3    4 1
     9    4    5 1
    10    4   33 1
    11    4   34 1
    12    5    6 1
    13    5   35 1
    14    5   36 1
    15    6    7 1
    16    6   37 1
    17    6   38 1
    18    7    8 2
    19    7   53 1
    20    8    9 1
    21    8   10 1
    22    9   39 1
    23    9   40 1
    24   10   11 1
    25   11   12 1
    26   11   41 1
    27   11   42 1
    28   12   13 2
    29   12   14 am
    30   14   25 1
    31   14   15 1
    32   15   20 ar
    33   15   16 ar
    34   16   17 ar
    35   16   43 1
    36   17   18 ar
    37   17   44 1
    38   18   19 ar
    39   18   45 1
    40   19   20 ar
    41   19   46 1
    42   20   21 1
    43   21   22 am
    44   21   47 1
    45   22   23 2
    46   22   24 1
    47   24   25 1
    48   24   48 1
    49   24   49 1
    50   25   26 1
    51   25   27 1
    52   27   50 1
    53   27   51 1
    54   27   52 1
@<TRIPOS>MOLECULE
ZINC42184586
   53    54     0     0     0
SMALL
USER_CHARGES

@<TRIPOS>ATOM
      1 C1         -0.0187    1.5258    0.0104 C.3       1 <0>        -0.1777
      2 C2          0.0021   -0.0041    0.0020 C.3       1 <0>         0.0938
      3 H1          0.5293   -0.3651    0.8851 H         1 <0>         0.1528
      4 C3          0.7074   -0.4901   -1.2379 C.ar      1 <0>        -0.2177
      5 C4         -0.0231   -0.8170   -2.3645 C.ar      1 <0>        -0.0474
      6 C5          0.6206   -1.2628   -3.5027 C.ar      1 <0>        -0.2288
      7 C6          2.0032   -1.3834   -3.5172 C.ar      1 <0>         0.1983
      8 C7          2.7382   -1.0562   -2.3884 C.ar      1 <0>        -0.2357
      9 C8          2.0903   -0.6036   -1.2492 C.ar      1 <0>         0.2028
     10 O1          2.8086   -0.2762   -0.1430 O.3       1 <0>        -0.3128
     11 C9          4.2282   -0.4175   -0.2260 C.3       1 <0>         0.0205
     12 O2          2.6359   -1.8225   -4.6370 O.3       1 <0>        -0.3056
     13 C10         1.8155   -2.1420   -5.7625 C.3       1 <0>         0.0208
     14 N1         -1.3761   -0.5125    0.0124 N.4       1 <0>        -0.4960
     15 C11        -2.0260   -0.1396    1.2760 C.3       1 <0>         0.0034
     16 H2         -1.9599    0.9396    1.4139 H         1 <0>         0.1750
     17 C12        -1.3251   -0.8462    2.4380 C.3       1 <0>        -0.1841
     18 C13        -3.4747   -0.5532    1.2369 C.2       1 <0>         0.5168
     19 O3         -3.9214   -1.1041    0.2537 O.2       1 <0>        -0.4517
     20 N2         -4.2735   -0.3106    2.2949 N.am      1 <0>        -0.6745
     21 C14        -5.5691   -0.6805    2.2599 C.2       1 <0>         0.6949
     22 O4         -6.0170   -1.2328    1.2743 O.2       1 <0>        -0.5152
     23 N3         -6.3679   -0.4379    3.3180 N.am      1 <0>        -0.7244
     24 C15        -7.7761   -0.8400    3.2800 C.3       1 <0>         0.2248
     25 C16        -8.4429   -0.4574    4.5762 C.2       1 <0>        -0.1958
     26 C17        -9.0817    0.6933    4.9004 C.2       1 <0>        -0.1175
     27 C18        -9.6249    0.8251    6.1646 C.2       1 <0>        -0.1691
     28 C19        -9.5029   -0.2002    7.0427 C.2       1 <0>        -0.1498
     29 S1         -8.6033   -1.4053    6.0805 S.3       1 <0>         0.0588
     30 H3          1.0039    1.9031    0.0027 H         1 <0>         0.1120
     31 H4         -0.5459    1.8868   -0.8726 H         1 <0>         0.0837
     32 H5         -0.5289    1.8773    0.9072 H         1 <0>         0.0811
     33 H6         -1.0991   -0.7241   -2.3550 H         1 <0>         0.1280
     34 H7          0.0475   -1.5180   -4.3818 H         1 <0>         0.1437
     35 H8          3.8142   -1.1494   -2.3978 H         1 <0>         0.1505
     36 H9          4.4779   -1.4566   -0.4405 H         1 <0>         0.0659
     37 H10         4.6108    0.2201   -1.0229 H         1 <0>         0.0664
     38 H11         4.6786   -0.1239    0.7222 H         1 <0>         0.1122
     39 H12         1.1180   -2.9342   -5.4905 H         1 <0>         0.0636
     40 H13         1.2583   -1.2567   -6.0690 H         1 <0>         0.0637
     41 H14         2.4444   -2.4787   -6.5866 H         1 <0>         0.1119
     42 H15        -1.8879   -0.1129   -0.7598 H         1 <0>         0.4318
     43 H16        -0.2774   -0.5471    2.4663 H         1 <0>         0.1046
     44 H17        -1.8074   -0.5695    3.3755 H         1 <0>         0.1129
     45 H18        -1.3913   -1.9254    2.3001 H         1 <0>         0.0939
     46 H19        -3.9160    0.1302    3.0816 H         1 <0>         0.4184
     47 H20        -6.0104    0.0028    4.1046 H         1 <0>         0.4050
     48 H21        -8.2755   -0.3366    2.4521 H         1 <0>         0.0979
     49 H22        -7.8423   -1.9192    3.1420 H         1 <0>         0.0908
     50 H23        -9.1646    1.4953    4.1819 H         1 <0>         0.1365
     51 H24       -10.1387    1.7317    6.4485 H         1 <0>         0.1400
     52 H25        -9.8606   -0.2713    8.0593 H         1 <0>         0.1912
     53 H26        -1.3644   -1.5176   -0.0760 H         1 <0>         0.4353
@<TRIPOS>BOND
     1    1    2 1
     2    1   30 1
     3    1   31 1
     4    1   32 1
     5    2    3 1
     6    2    4 1
     7    2   14 1
     8    4    9 ar
     9    4    5 ar
    10    5    6 ar
    11    5   33 1
    12    6    7 ar
    13    6   34 1
    14    7    8 ar
    15    7   12 1
    16    8    9 ar
    17    8   35 1
    18    9   10 1
    19   10   11 1
    20   11   36 1
    21   11   37 1
    22   11   38 1
    23   12   13 1
    24   13   39 1
    25   13   40 1
    26   13   41 1
    27   14   15 1
    28   14   42 1
    29   14   53 1
    30   15   16 1
    31   15   17 1
    32   15   18 1
    33   17   43 1
    34   17   44 1
    35   17   45 1
    36   18   19 2
    37   18   20 am
    38   20   21 am
    39   20   46 1
    40   21   22 2
    41   21   23 am
    42   23   24 1
    43   23   47 1
    44   24   25 1
    45   24   48 1
    46   24   49 1
    47   25   29 1
    48   25   26 2
    49   26   27 1
    50   26   50 1
    51   27   28 2
    52   27   51 1
    53   28   29 1
    54   28   52 1
@<TRIPOS>MOLECULE
ZINC54727004
   59    59     0     0     0
SMALL
USER_CHARGES

@<TRIPOS>ATOM
      1 C1         -0.7738    1.2817    0.4832 C.3       1 <0>        -0.1699
      2 C2         -0.7568   -0.2391    0.6501 C.3       1 <0>        -0.1105
      3 H1         -1.7456   -0.5830    0.9537 H         1 <0>         0.1211
      4 C3         -0.3731   -0.8952   -0.6794 C.3       1 <0>        -0.1291
      5 C4          1.0474   -0.4661   -1.0579 C.3       1 <0>        -0.1114
      6 H2          1.0727    0.6126   -1.2123 H         1 <0>         0.0939
      7 C5          2.0067   -0.8431    0.0730 C.3       1 <0>        -0.0159
      8 N1          1.6020   -0.1638    1.3097 N.4       1 <0>        -0.3790
      9 C6          0.2686   -0.6244    1.7185 C.3       1 <0>        -0.0155
     10 C7          2.5699   -0.4668    2.3723 C.3       1 <0>         0.0438
     11 C8          2.6286   -1.9798    2.5925 C.3       1 <0>        -0.1749
     12 C9          3.9531    0.0430    1.9628 C.3       1 <0>        -0.1796
     13 C10         2.1361    0.2207    3.6685 C.3       1 <0>         0.1198
     14 N2          2.0014    1.6608    3.4359 N.am      1 <0>        -0.7628
     15 C11         1.5271    2.4597    4.4123 C.2       1 <0>         0.7194
     16 O1          1.2111    1.9851    5.4862 O.2       1 <0>        -0.5452
     17 N3          1.4031    3.7846    4.1983 N.am      1 <0>        -0.5214
     18 N4          1.7672    4.3314    2.9609 N.am      1 <0>        -0.5108
     19 C12         1.6433    5.6563    2.7469 C.2       1 <0>         0.6635
     20 O2          1.9591    6.1305    1.6737 O.2       1 <0>        -0.5372
     21 O3          1.1695    6.4543    3.7223 O.3       1 <0>        -0.3530
     22 C13         1.0646    7.8483    3.4264 C.3       1 <0>         0.1357
     23 C14         0.1220    8.0479    2.2378 C.3       1 <0>        -0.1880
     24 C15         0.5114    8.5884    4.6458 C.3       1 <0>        -0.1439
     25 C16         2.4481    8.4013    3.0785 C.3       1 <0>        -0.1890
     26 C17         1.4697   -1.1765   -2.3455 C.3       1 <0>        -0.1511
     27 H3          0.2152    1.6249    0.1795 H         1 <0>         0.0469
     28 H4         -1.5032    1.5554   -0.2791 H         1 <0>         0.0871
     29 H5         -1.0454    1.7482    1.4301 H         1 <0>         0.0718
     30 H6         -0.4106   -1.9795   -0.5749 H         1 <0>         0.0846
     31 H7         -1.0688   -0.5784   -1.4564 H         1 <0>         0.0960
     32 H8          1.9808   -1.9219    0.2264 H         1 <0>         0.1356
     33 H9          3.0190   -0.5391   -0.1934 H         1 <0>         0.1334
     34 H10        -0.0025   -0.1591    2.6662 H         1 <0>         0.1326
     35 H11         0.2797   -1.7079    1.8368 H         1 <0>         0.1363
     36 H12         2.9376   -2.4696    1.6691 H         1 <0>         0.0913
     37 H13         3.3468   -2.2046    3.3810 H         1 <0>         0.1116
     38 H14         1.6431   -2.3430    2.8843 H         1 <0>         0.0877
     39 H15         3.9113    1.1208    1.8059 H         1 <0>         0.0764
     40 H16         4.6713   -0.1819    2.7513 H         1 <0>         0.1141
     41 H17         4.2621   -0.4469    1.0394 H         1 <0>         0.0911
     42 H18         1.1783   -0.1862    3.9927 H         1 <0>         0.1033
     43 H19         2.8852    0.0459    4.4408 H         1 <0>         0.1176
     44 H20         2.2535    2.0394    2.5791 H         1 <0>         0.3847
     45 H21         1.0618    4.3595    4.9011 H         1 <0>         0.4523
     46 H22         2.1086    3.7565    2.2582 H         1 <0>         0.4311
     47 H23        -0.8636    7.6539    2.4857 H         1 <0>         0.0625
     48 H24         0.0421    9.1112    2.0121 H         1 <0>         0.0783
     49 H25         0.5161    7.5206    1.3690 H         1 <0>         0.0849
     50 H26         1.1830    8.4463    5.4926 H         1 <0>         0.0702
     51 H27         0.4315    9.6518    4.4201 H         1 <0>         0.0877
     52 H28        -0.4742    8.1945    4.8937 H         1 <0>         0.0697
     53 H29         2.8422    7.8741    2.2097 H         1 <0>         0.0852
     54 H30         2.3682    9.4647    2.8527 H         1 <0>         0.0783
     55 H31         3.1197    8.2592    3.9252 H         1 <0>         0.0634
     56 H32         0.7835   -0.9099   -3.1494 H         1 <0>         0.0784
     57 H33         2.4807   -0.8707   -2.6144 H         1 <0>         0.0685
     58 H34         1.4456   -2.2551   -2.1900 H         1 <0>         0.0680
     59 H35         1.5788    0.8326    1.1528 H         1 <0>         0.4105
@<TRIPOS>BOND
     1    1    2 1
     2    1   27 1
     3    1   28 1
     4    1   29 1
     5    2    3 1
     6    2    9 1
     7    2    4 1
     8    4    5 1
     9    4   30 1
    10    4   31 1
    11    5    6 1
    12    5    7 1
    13    5   26 1
    14    7    8 1
    15    7   32 1
    16    7   33 1
    17    8    9 1
    18    8   10 1
    19    8   59 1
    20    9   34 1
    21    9   35 1
    22   10   11 1
    23   10   12 1
    24   10   13 1
    25   11   36 1
    26   11   37 1
    27   11   38 1
    28   12   39 1
    29   12   40 1
    30   12   41 1
    31   13   14 1
    32   13   42 1
    33   13   43 1
    34   14   15 am
    35   14   44 1
    36   15   16 2
    37   15   17 am
    38   17   18 1
    39   17   45 1
    40   18   19 am
    41   18   46 1
    42   19   20 2
    43   19   21 1
    44   21   22 1
    45   22   23 1
    46   22   24 1
    47   22   25 1
    48   23   47 1
    49   23   48 1
    50   23   49 1
    51   24   50 1
    52   24   51 1
    53   24   52 1
    54   25   53 1
    55   25   54 1
    56   25   55 1
    57   26   56 1
    58   26   57 1
    59   26   58 1
@<TRIPOS>MOLECULE
ZINC63488669
   52    55     0     0     0
SMALL
USER_CHARGES

@<TRIPOS>ATOM
      1 C1         -0.0187    1.5258    0.0104 C.3       1 <0>        -0.1732
      2 C2          0.0021   -0.0041    0.0020 C.3       1 <0>         0.2051
      3 C3         -1.4117   -0.5257    0.0127 C.cat     1 <0>         0.3141
      4 N1         -2.1563   -0.7969   -1.0817 N.pl3     1 <0>        -0.4995
      5 H1         -1.8788   -0.6921   -2.0052 H         1 <0>         0.4637
      6 C4         -3.3721   -1.2468   -0.6484 C.2       1 <0>         0.0410
      7 C5         -3.3309   -1.2359    0.7096 C.2       1 <0>         0.1021
      8 N2         -2.1118   -0.7934    1.0792 N.pl3     1 <0>        -0.4633
      9 C6         -4.4278   -1.6435    1.6218 C.ar      1 <0>        -0.0683
     10 C7         -4.2507   -1.5759    3.0024 C.ar      1 <0>        -0.1000
     11 C8         -5.2744   -1.9563    3.8462 C.ar      1 <0>        -0.1070
     12 C9         -6.4743   -2.4045    3.3239 C.ar      1 <0>        -0.0830
     13 C10        -6.6554   -2.4741    1.9543 C.ar      1 <0>        -0.1078
     14 C11        -5.6409   -2.0899    1.1011 C.ar      1 <0>        -0.0809
     15 N3          0.6878   -0.4765   -1.2033 N.am      1 <0>        -0.7384
     16 C12         2.0310   -0.5870   -1.2149 C.2       1 <0>         0.5280
     17 O1          2.6720   -0.2952   -0.2276 O.2       1 <0>        -0.4825
     18 C13         2.7363   -1.0730   -2.4548 C.3       1 <0>         0.0433
     19 O2          4.1456   -1.1032   -2.2202 O.3       1 <0>        -0.2886
     20 C14         4.9334   -1.5216   -3.2464 C.ar      1 <0>         0.1018
     21 C15         4.3603   -1.8895   -4.4551 C.ar      1 <0>        -0.1785
     22 C16         5.1593   -2.3147   -5.4978 C.ar      1 <0>        -0.1106
     23 C17         6.5371   -2.3739   -5.3362 C.ar      1 <0>         0.1339
     24 C18         7.1098   -2.0053   -4.1263 C.ar      1 <0>        -0.0791
     25 C19         6.3103   -1.5751   -3.0861 C.ar      1 <0>        -0.1046
     26 C20         8.6053   -2.0695   -3.9544 C.3       1 <0>        -0.0810
     27 C21         9.1624   -3.2454   -4.7572 C.3       1 <0>        -0.1394
     28 C22         8.6094   -3.2185   -6.1566 C.2       1 <0>         0.5195
     29 O3          9.3063   -3.5741   -7.0835 O.2       1 <0>        -0.5195
     30 N4          7.3508   -2.8043   -6.3914 N.am      1 <0>        -0.6647
     31 H2          1.0039    1.9031    0.0027 H         1 <0>         0.1026
     32 H3         -0.5459    1.8868   -0.8726 H         1 <0>         0.0762
     33 H4         -0.5289    1.8773    0.9072 H         1 <0>         0.0854
     34 H5          0.5293   -0.3651    0.8851 H         1 <0>         0.1456
     35 H6         -4.2043   -1.5512   -1.2658 H         1 <0>         0.2337
     36 H7         -3.3140   -1.2268    3.4112 H         1 <0>         0.1220
     37 H8         -5.1382   -1.9044    4.9163 H         1 <0>         0.1392
     38 H9         -7.2725   -2.7015    3.9879 H         1 <0>         0.1389
     39 H10        -7.5941   -2.8251    1.5519 H         1 <0>         0.1413
     40 H11        -5.7852   -2.1397    0.0320 H         1 <0>         0.1346
     41 H12         0.1751   -0.7099   -1.9930 H         1 <0>         0.4015
     42 H13         2.3875   -2.0757   -2.7018 H         1 <0>         0.0994
     43 H14         2.5204   -0.3987   -3.2836 H         1 <0>         0.1014
     44 H15         3.2886   -1.8435   -4.5805 H         1 <0>         0.1314
     45 H16         4.7129   -2.6015   -6.4384 H         1 <0>         0.1352
     46 H17         6.7563   -1.2846   -2.1465 H         1 <0>         0.1428
     47 H18         9.0520   -1.1417   -4.3117 H         1 <0>         0.0907
     48 H19         8.8440   -2.2044   -2.8994 H         1 <0>         0.0980
     49 H20        10.2494   -3.1746   -4.7961 H         1 <0>         0.1145
     50 H21         8.8789   -4.1804   -4.2739 H         1 <0>         0.1062
     51 H22         7.0048   -2.8042   -7.2976 H         1 <0>         0.4123
     52 H23        -1.8054   -0.6885    1.9936 H         1 <0>         0.4647
@<TRIPOS>BOND
     1    1    2 1
     2    1   31 1
     3    1   32 1
     4    1   33 1
     5    2    3 1
     6    2   15 1
     7    2   34 1
     8    3    8 2
     9    3    4 1
    10    4    5 1
    11    4    6 1
    12    6    7 2
    13    6   35 1
    14    7    8 1
    15    7    9 1
    16    8   52 1
    17    9   14 ar
    18    9   10 ar
    19   10   11 ar
    20   10   36 1
    21   11   12 ar
    22   11   37 1
    23   12   13 ar
    24   12   38 1
    25   13   14 ar
    26   13   39 1
    27   14   40 1
    28   15   16 am
    29   15   41 1
    30   16   17 2
    31   16   18 1
    32   18   19 1
    33   18   42 1
    34   18   43 1
    35   19   20 1
    36   20   25 ar
    37   20   21 ar
    38   21   22 ar
    39   21   44 1
    40   22   23 ar
    41   22   45 1
    42   23   30 1
    43   23   24 ar
    44   24   25 ar
    45   24   26 1
    46   25   46 1
    47   26   27 1
    48   26   47 1
    49   26   48 1
    50   27   28 1
    51   27   49 1
    52   27   50 1
    53   28   29 2
    54   28   30 am
    55   30   51 1
@<TRIPOS>MOLECULE
ZINC65482753
   53    54     0     0     0
SMALL
USER_CHARGES

@<TRIPOS>ATOM
      1 C1          2.7658   -1.1541   -1.8184 C.3       1 <0>        -0.2000
      2 C2          1.9295    0.0283   -1.3250 C.3       1 <0>        -0.0231
      3 N1          0.5092   -0.3465   -1.3157 N.4       1 <0>        -0.3869
      4 C3         -0.1772    0.3625   -0.2275 C.3       1 <0>        -0.0135
      5 C4         -1.6194   -0.1377   -0.1229 C.3       1 <0>        -0.1885
      6 C5         -0.1021    0.0189   -2.6005 C.3       1 <0>         0.1205
      7 C6          0.6790   -0.6359   -3.7415 C.3       1 <0>         0.1097
      8 N2          0.7167   -2.0863   -3.5382 N.am      1 <0>        -0.7635
      9 C7          1.4138   -2.8678   -4.3866 C.2       1 <0>         0.7178
     10 O1          2.0858   -2.3630   -5.2652 O.2       1 <0>        -0.5460
     11 N3          1.3659   -4.2088   -4.2611 N.am      1 <0>        -0.5227
     12 N4          0.5076   -4.7943   -3.3212 N.am      1 <0>        -0.5411
     13 C8          0.5359   -6.1267   -3.1208 C.2       1 <0>         0.5140
     14 O2          1.3045   -6.8190   -3.7541 O.2       1 <0>        -0.5007
     15 C9         -0.3873   -6.7565   -2.1098 C.3       1 <0>        -0.0836
     16 C10        -0.1580   -8.2456   -2.0792 C.ar      1 <0>        -0.0972
     17 C11        -0.8801   -9.0730   -2.9189 C.ar      1 <0>        -0.0711
     18 C12        -0.6704  -10.4387   -2.8920 C.ar      1 <0>        -0.1513
     19 C13         0.2634  -10.9782   -2.0236 C.ar      1 <0>         0.1109
     20 C14         0.9860  -10.1485   -1.1830 C.ar      1 <0>        -0.1524
     21 C15         0.7783   -8.7826   -1.2154 C.ar      1 <0>        -0.0722
     22 F1          0.4689  -12.3132   -1.9962 F         1 <0>        -0.1343
     23 C16        -0.0697    1.5166   -2.7643 C.2       1 <0>        -0.1030
     24 C17        -1.0956    2.2859   -3.1706 C.2       1 <0>        -0.1213
     25 C18        -0.6281    3.6201   -3.1809 C.2       1 <0>        -0.2120
     26 C19         0.6555    3.5864   -2.7803 C.2       1 <0>         0.0123
     27 O3          0.9866    2.3104   -2.5237 O.3       1 <0>        -0.1779
     28 H1          2.4964   -2.0489   -1.2573 H         1 <0>         0.0759
     29 H2          2.5730   -1.3182   -2.8786 H         1 <0>         0.0952
     30 H3          3.8239   -0.9375   -1.6708 H         1 <0>         0.1072
     31 H4          2.2409    0.2975   -0.3157 H         1 <0>         0.1339
     32 H5          2.0763    0.8796   -1.9897 H         1 <0>         0.1441
     33 H6          0.3416    0.1748    0.7125 H         1 <0>         0.1358
     34 H7         -0.1779    1.4326   -0.4348 H         1 <0>         0.1315
     35 H8         -2.1488    0.4366    0.6373 H         1 <0>         0.1101
     36 H9         -2.1176   -0.0138   -1.0844 H         1 <0>         0.0781
     37 H10        -1.6191   -1.1922    0.1530 H         1 <0>         0.0824
     38 H11        -1.1356   -0.3268   -2.6225 H         1 <0>         0.1665
     39 H12         0.1903   -0.4146   -4.6903 H         1 <0>         0.1202
     40 H13         1.6963   -0.2447   -3.7569 H         1 <0>         0.1114
     41 H14         0.2399   -2.4841   -2.7930 H         1 <0>         0.3862
     42 H15         1.9258   -4.7687   -4.8215 H         1 <0>         0.4522
     43 H16        -0.1071   -4.2406   -2.8147 H         1 <0>         0.4134
     44 H17        -0.1864   -6.3376   -1.1238 H         1 <0>         0.1115
     45 H18        -1.4219   -6.5538   -2.3868 H         1 <0>         0.1139
     46 H19        -1.6086   -8.6520   -3.5960 H         1 <0>         0.1322
     47 H20        -1.2348  -11.0850   -3.5479 H         1 <0>         0.1399
     48 H21         1.7143  -10.5683   -0.5050 H         1 <0>         0.1392
     49 H22         1.3449   -8.1348   -0.5630 H         1 <0>         0.1307
     50 H23        -2.0862    1.9489   -3.4382 H         1 <0>         0.1632
     51 H24        -1.1931    4.4979   -3.4578 H         1 <0>         0.1655
     52 H25         1.3080    4.4410   -2.6783 H         1 <0>         0.2198
     53 H26         0.4250   -1.3420   -1.1742 H         1 <0>         0.4174
@<TRIPOS>BOND
     1    1    2 1
     2    1   28 1
     3    1   29 1
     4    1   30 1
     5    2    3 1
     6    2   31 1
     7    2   32 1
     8    3    4 1
     9    3    6 1
    10    3   53 1
    11    4    5 1
    12    4   33 1
    13    4   34 1
    14    5   35 1
    15    5   36 1
    16    5   37 1
    17    6    7 1
    18    6   23 1
    19    6   38 1
    20    7    8 1
    21    7   39 1
    22    7   40 1
    23    8    9 am
    24    8   41 1
    25    9   10 2
    26    9   11 am
    27   11   12 1
    28   11   42 1
    29   12   13 am
    30   12   43 1
    31   13   14 2
    32   13   15 1
    33   15   16 1
    34   15   44 1
    35   15   45 1
    36   16   21 ar
    37   16   17 ar
    38   17   18 ar
    39   17   46 1
    40   18   19 ar
    41   18   47 1
    42   19   20 ar
    43   19   22 1
    44   20   21 ar
    45   20   48 1
    46   21   49 1
    47   23   27 1
    48   23   24 2
    49   24   25 1
    50   24   50 1
    51   25   26 2
    52   25   51 1
    53   26   27 1
    54   26   52 1
@<TRIPOS>MOLECULE
ZINC05303212
   54    57     0     0     0
SMALL
USER_CHARGES
2-[4-(2-adamantylaminomethyl)-2-methoxy-phenoxy]acetamide
@<TRIPOS>ATOM
      1 C1          0.0235    0.8252    7.2714 C.3       1 <0>         0.0221
      2 O1          1.3606    1.2140    7.5925 O.3       1 <0>        -0.2929
      3 C2          1.9619    2.1040    6.7583 C.ar      1 <0>         0.1136
      4 C3          1.2781    2.5957    5.6580 C.ar      1 <0>        -0.1538
      5 C4          1.8928    3.4963    4.8082 C.ar      1 <0>        -0.1661
      6 C5          3.1858    3.9164    5.0591 C.ar      1 <0>        -0.0829
      7 C6          3.8719    3.4334    6.1577 C.ar      1 <0>        -0.1772
      8 C7          3.2635    2.5265    7.0106 C.ar      1 <0>         0.1389
      9 O2          3.9369    2.0506    8.0921 O.3       1 <0>        -0.2693
     10 C8          5.2691    2.5287    8.2887 C.3       1 <0>         0.0343
     11 C9          5.8521    1.8966    9.5263 C.2       1 <0>         0.5175
     12 O3          5.1918    1.1139   10.1760 O.2       1 <0>        -0.5104
     13 N1          7.1073    2.2012    9.9112 N.am      1 <0>        -0.8473
     14 C10         1.1495    4.0261    3.6090 C.3       1 <0>         0.0535
     15 C11         0.6858    3.6387    1.2644 C.3       1 <0>         0.0374
     16 C12         1.4019    3.1452    0.0056 C.3       1 <0>        -0.1016
     17 C13         1.4227    1.6154   -0.0028 C.3       1 <0>        -0.1260
     18 C14        -0.0127    1.0858    0.0080 C.3       1 <0>        -0.0926
     19 C15        -0.7527    1.5927   -1.2315 C.3       1 <0>        -0.1138
     20 C16        -0.7734    3.1225   -1.2231 C.3       1 <0>        -0.0941
     21 H1         -1.3006    3.4836   -2.1062 H         1 <0>         0.0876
     22 C17         0.6619    3.6521   -1.2340 C.3       1 <0>        -0.1063
     23 C18        -1.4896    3.6159    0.0357 C.3       1 <0>        -0.1064
     24 C19        -0.7496    3.1091    1.2752 C.3       1 <0>        -0.1007
     25 C20        -0.7288    1.5792    1.2668 C.3       1 <0>        -0.1238
     26 H2         -0.3365    0.1140    8.0149 H         1 <0>         0.1114
     27 H3         -0.6200    1.7050    7.2687 H         1 <0>         0.0593
     28 H4          0.0071    0.3600    6.2858 H         1 <0>         0.0560
     29 H5          0.2665    2.2723    5.4620 H         1 <0>         0.1435
     30 H6          3.6611    4.6233    4.3951 H         1 <0>         0.1378
     31 H7          4.8819    3.7632    6.3515 H         1 <0>         0.1479
     32 H8          5.8802    2.2671    7.4248 H         1 <0>         0.0994
     33 H9          5.2526    3.6121    8.4074 H         1 <0>         0.1003
     34 H10         7.6355    2.8273    9.3916 H         1 <0>         0.4041
     35 H11         7.4826    1.7944   10.7078 H         1 <0>         0.4143
     36 H12         1.4968    5.0341    3.3825 H         1 <0>         0.1385
     37 H13         0.0813    4.0498    3.8250 H         1 <0>         0.1343
     38 H14         0.6710    4.7285    1.2704 H         1 <0>         0.1400
     39 H15         2.4245    3.5225   -0.0022 H         1 <0>         0.0948
     40 H16         1.9499    1.2543    0.8802 H         1 <0>         0.0577
     41 H17         1.9329    1.2639   -0.8996 H         1 <0>         0.0908
     42 H18         0.0021   -0.0041    0.0020 H         1 <0>         0.0870
     43 H19        -0.2425    1.2411   -2.1283 H         1 <0>         0.0730
     44 H20        -1.7753    1.2154   -1.2238 H         1 <0>         0.0727
     45 H21         0.6472    4.7420   -1.2280 H         1 <0>         0.0754
     46 H22         1.1721    3.3005   -2.1308 H         1 <0>         0.0848
     47 H23        -1.5044    4.7058    0.0417 H         1 <0>         0.0756
     48 H24        -2.5122    3.2386    0.0434 H         1 <0>         0.0846
     49 H25        -1.2598    3.4606    2.1720 H         1 <0>         0.0928
     50 H26        -1.7514    1.2020    1.2746 H         1 <0>         0.0932
     51 H27        -0.2017    1.2182    2.1499 H         1 <0>         0.0556
     52 N2          1.4024    3.1433    2.4547 N.4       1 <0>        -0.5191
     53 H28         1.0768    2.1950    2.6758 H         1 <0>         0.4256
     54 H29         2.4101    3.1221    2.2589 H         1 <0>         0.4288
@<TRIPOS>BOND
     1    1    2 1
     2    1   26 1
     3    1   27 1
     4    1   28 1
     5    2    3 1
     6    3    8 ar
     7    3    4 ar
     8    4    5 ar
     9    4   29 1
    10    5    6 ar
    11    5   14 1
    12    6    7 ar
    13    6   30 1
    14    7    8 ar
    15    7   31 1
    16    8    9 1
    17    9   10 1
    18   10   11 1
    19   10   32 1
    20   10   33 1
    21   11   12 2
    22   11   13 am
    23   13   34 1
    24   13   35 1
    25   14   36 1
    26   14   37 1
    27   14   52 1
    28   15   24 1
    29   15   16 1
    30   15   38 1
    31   15   52 1
    32   16   22 1
    33   16   17 1
    34   16   39 1
    35   17   18 1
    36   17   40 1
    37   17   41 1
    38   18   25 1
    39   18   19 1
    40   18   42 1
    41   19   20 1
    42   19   43 1
    43   19   44 1
    44   20   21 1
    45   20   22 1
    46   20   23 1
    47   22   45 1
    48   22   46 1
    49   23   24 1
    50   23   47 1
    51   23   48 1
    52   24   25 1
    53   24   49 1
    54   25   50 1
    55   25   51 1
    56   52   53 1
    57   52   54 1
@<TRIPOS>MOLECULE
ZINC18142686
   57    59     0     0     0
SMALL
USER_CHARGES

@<TRIPOS>ATOM
      1 C1          1.5452    1.2699    1.3090 C.3       1 <0>        -0.1212
      2 C2          1.3376   -0.2095    1.1106 C.ar      1 <0>        -0.0622
      3 C3          2.0424   -0.8794    0.1271 C.ar      1 <0>        -0.1210
      4 C4          1.8545   -2.2349   -0.0573 C.ar      1 <0>        -0.0555
      5 C5          0.9565   -2.9257    0.7462 C.ar      1 <0>         0.0964
      6 C6          0.2504   -2.2502    1.7328 C.ar      1 <0>        -0.0784
      7 C7          0.4471   -0.8953    1.9159 C.ar      1 <0>        -0.1199
      8 C8         -0.7253   -2.9956    2.6066 C.3       1 <0>        -0.1175
      9 N1          0.7635   -4.2989    0.5617 N.pl3     1 <0>        -0.6216
     10 C9          0.5704   -4.7917   -0.6778 C.2       1 <0>         0.5521
     11 S1          0.6881   -3.7584   -2.0377 S.2       1 <0>        -0.5863
     12 N2          0.2845   -6.0979   -0.8467 N.pl3     1 <0>        -0.5752
     13 C10         0.0506   -6.9691    0.3131 C.3       1 <0>         0.0981
     14 C11         0.9796   -8.1831    0.2133 C.3       1 <0>        -0.1502
     15 C12         0.7732   -8.8685   -1.1394 C.3       1 <0>         0.0375
     16 C13         1.1277   -7.8950   -2.2658 C.3       1 <0>        -0.1368
     17 C14         0.1949   -6.6765   -2.1942 C.3       1 <0>         0.0888
     18 C15        -0.6676   -9.2892   -1.2744 C.2       1 <0>         0.5123
     19 O1         -1.4572   -8.5721   -1.8517 O.2       1 <0>        -0.4646
     20 N3         -1.0787  -10.4623   -0.7536 N.am      1 <0>        -0.8475
     21 N4          1.6386  -10.0524   -1.2253 N.4       1 <0>        -0.3754
     22 C16         3.0367   -9.6497   -1.0318 C.3       1 <0>        -0.0186
     23 C17         3.9342  -10.8891   -1.0395 C.3       1 <0>        -0.1429
     24 C18         3.7899  -11.6087   -2.3836 C.3       1 <0>        -0.1406
     25 C19         2.3160  -11.9580   -2.6088 C.3       1 <0>        -0.1415
     26 C20         1.4785  -10.6790   -2.5430 C.3       1 <0>        -0.0211
     27 H1          2.3506    1.4309    2.0256 H         1 <0>         0.0749
     28 H2          1.8083    1.7308    0.3570 H         1 <0>         0.0711
     29 H3          0.6267    1.7180    1.6881 H         1 <0>         0.0694
     30 H4          2.7402   -0.3416   -0.4976 H         1 <0>         0.1295
     31 H5          2.4049   -2.7574   -0.8258 H         1 <0>         0.1436
     32 H6         -0.0985   -0.3702    2.6859 H         1 <0>         0.1290
     33 H7         -0.2085   -3.3714    3.4897 H         1 <0>         0.0723
     34 H8         -1.5261   -2.3227    2.9131 H         1 <0>         0.0775
     35 H9         -1.1469   -3.8319    2.0490 H         1 <0>         0.0559
     36 H10         0.7686   -4.8964    1.3258 H         1 <0>         0.4002
     37 H11         0.2633   -6.4207    1.2308 H         1 <0>         0.1019
     38 H12        -0.9872   -7.3024    0.3164 H         1 <0>         0.0981
     39 H13         2.0158   -7.8565    0.3012 H         1 <0>         0.1131
     40 H14         0.7494   -8.8843    1.0153 H         1 <0>         0.1113
     41 H15         2.1625   -7.5711   -2.1545 H         1 <0>         0.1040
     42 H16         1.0028   -8.3912   -3.2283 H         1 <0>         0.1117
     43 H17        -0.8314   -6.9864   -2.3913 H         1 <0>         0.1336
     44 H18         0.5028   -5.9350   -2.9315 H         1 <0>         0.1428
     45 H19        -0.4658  -11.0017   -0.2298 H         1 <0>         0.3966
     46 H20        -1.9874  -10.7672   -0.9024 H         1 <0>         0.4286
     47 H21         3.3363   -8.9797   -1.8377 H         1 <0>         0.1363
     48 H22         3.1372   -9.1349   -0.0763 H         1 <0>         0.1336
     49 H23         4.9720  -10.5878   -0.8974 H         1 <0>         0.1167
     50 H24         3.6356  -11.5597   -0.2337 H         1 <0>         0.0889
     51 H25         4.1366  -10.9565   -3.1852 H         1 <0>         0.0849
     52 H26         4.3837  -12.5227   -2.3732 H         1 <0>         0.0983
     53 H27         2.1973  -12.4208   -3.5885 H         1 <0>         0.1172
     54 H28         1.9839  -12.6508   -1.8356 H         1 <0>         0.0887
     55 H29         0.4286  -10.9241   -2.7031 H         1 <0>         0.1289
     56 H30         1.8113   -9.9871   -3.3167 H         1 <0>         0.1388
     57 H31         1.3779  -10.7111   -0.5068 H         1 <0>         0.4151
@<TRIPOS>BOND
     1    1    2 1
     2    1   27 1
     3    1   28 1
     4    1   29 1
     5    2    7 ar
     6    2    3 ar
     7    3    4 ar
     8    3   30 1
     9    4    5 ar
    10    4   31 1
    11    5    6 ar
    12    5    9 1
    13    6    7 ar
    14    6    8 1
    15    7   32 1
    16    8   33 1
    17    8   34 1
    18    8   35 1
    19    9   10 1
    20    9   36 1
    21   10   11 2
    22   10   12 1
    23   12   17 1
    24   12   13 1
    25   13   14 1
    26   13   37 1
    27   13   38 1
    28   14   15 1
    29   14   39 1
    30   14   40 1
    31   15   16 1
    32   15   18 1
    33   15   21 1
    34   16   17 1
    35   16   41 1
    36   16   42 1
    37   17   43 1
    38   17   44 1
    39   18   19 2
    40   18   20 am
    41   20   45 1
    42   20   46 1
    43   21   26 1
    44   21   22 1
    45   21   57 1
    46   22   23 1
    47   22   47 1
    48   22   48 1
    49   23   24 1
    50   23   49 1
    51   23   50 1
    52   24   25 1
    53   24   51 1
    54   24   52 1
    55   25   26 1
    56   25   53 1
    57   25   54 1
    58   26   55 1
    59   26   56 1
@<TRIPOS>MOLECULE
ZINC45069301
   35    35     0     0     0
SMALL
USER_CHARGES

@<TRIPOS>ATOM
      1 C1         -0.0187    1.5258    0.0104 C.3       1 <0>        -0.1822
      2 C2          0.0021   -0.0041    0.0020 C.3       1 <0>         0.0700
      3 H1          0.5293   -0.3651    0.8851 H         1 <0>         0.1554
      4 C3          0.7074   -0.4901   -1.2379 C.ar      1 <0>        -0.1018
      5 C4         -0.0229   -0.8171   -2.3652 C.ar      1 <0>        -0.1166
      6 C5          0.6235   -1.2625   -3.5027 C.ar      1 <0>        -0.0574
      7 C6          2.0019   -1.3811   -3.5137 C.ar      1 <0>        -0.0701
      8 C7          2.7328   -1.0541   -2.3863 C.ar      1 <0>        -0.0470
      9 C8          2.0858   -0.6034   -1.2497 C.ar      1 <0>        -0.0683
     10 Br1         3.0853   -0.1486    0.2898 Br        1 <0>        -0.0057
     11 Br2         2.8861   -1.9911   -5.0700 Br        1 <0>        -0.0001
     12 N1         -1.3761   -0.5125    0.0124 N.4       1 <0>        -0.5101
     13 C9         -2.0260   -0.1396    1.2760 C.3       1 <0>        -0.0064
     14 C10        -3.4614   -0.6692    1.2868 C.3       1 <0>        -0.1419
     15 C11        -4.1384   -0.2808    2.6028 C.3       1 <0>        -0.6408
     16 S1         -5.8402   -0.9087    2.6157 S.o2      1 <0>         2.6223
     17 O1         -6.6221   -0.2235    1.6470 O.2       1 <0>        -0.9509
     18 O2         -5.8376   -2.3286    2.6718 O.2       1 <0>        -0.9474
     19 N2         -6.4597   -0.4293    4.0747 N.pl3     1 <0>        -1.2453
     20 H2          1.0039    1.9031    0.0027 H         1 <0>         0.1116
     21 H3         -0.5459    1.8868   -0.8726 H         1 <0>         0.0893
     22 H4         -0.5289    1.8773    0.9072 H         1 <0>         0.0928
     23 H5         -1.0989   -0.7250   -2.3568 H         1 <0>         0.1370
     24 H6          0.0525   -1.5182   -4.3830 H         1 <0>         0.1552
     25 H7          3.8088   -1.1466   -2.3945 H         1 <0>         0.1582
     26 H8         -1.8879   -0.1129   -0.7598 H         1 <0>         0.4281
     27 H9         -1.4732   -0.5714    2.1102 H         1 <0>         0.1415
     28 H10        -2.0386    0.9461    1.3715 H         1 <0>         0.1430
     29 H11        -4.0143   -0.2375    0.4526 H         1 <0>         0.1072
     30 H12        -3.4489   -1.7549    1.1913 H         1 <0>         0.1073
     31 H13        -3.5855   -0.7126    3.4371 H         1 <0>         0.1462
     32 H14        -4.1510    0.8049    2.6983 H         1 <0>         0.1485
     33 H15        -7.4084   -0.2473    4.1626 H         1 <0>         0.4283
     34 H16        -5.8738   -0.3304    4.8414 H         1 <0>         0.4163
     35 H17        -1.3644   -1.5176   -0.0760 H         1 <0>         0.4337
@<TRIPOS>BOND
     1    1    2 1
     2    1   20 1
     3    1   21 1
     4    1   22 1
     5    2    3 1
     6    2    4 1
     7    2   12 1
     8    4    9 ar
     9    4    5 ar
    10    5    6 ar
    11    5   23 1
    12    6    7 ar
    13    6   24 1
    14    7    8 ar
    15    7   11 1
    16    8    9 ar
    17    8   25 1
    18    9   10 1
    19   12   13 1
    20   12   26 1
    21   12   35 1
    22   13   14 1
    23   13   27 1
    24   13   28 1
    25   14   15 1
    26   14   29 1
    27   14   30 1
    28   15   16 1
    29   15   31 1
    30   15   32 1
    31   16   17 2
    32   16   18 2
    33   16   19 1
    34   19   33 1
    35   19   34 1
@<TRIPOS>MOLECULE
ZINC61594245
   38    39     0     0     0
SMALL
USER_CHARGES

@<TRIPOS>ATOM
      1 C1          0.3101    1.5587   -0.0153 C.3       1 <0>        -0.1736
      2 C2          0.1675    0.0356    0.0115 C.3       1 <0>        -0.1541
      3 C3          0.8053   -0.5140    1.2890 C.3       1 <0>         0.0490
      4 H1          1.8364   -0.1673    1.3585 H         1 <0>         0.1561
      5 C4          0.7827   -2.0434    1.2532 C.3       1 <0>        -0.0237
      6 H2         -0.2467   -2.3895    1.1610 H         1 <0>         0.1481
      7 C5          1.3826   -2.5846    2.5253 C.2       1 <0>        -0.2468
      8 C6          0.8175   -3.3837    3.4625 C.2       1 <0>        -0.0715
      9 C7          1.5658   -3.7604    4.5625 C.2       1 <0>        -0.1564
     10 C8          2.8438   -3.3183    4.6703 C.2       1 <0>        -0.0867
     11 S1          3.0245   -2.3455    3.1843 S.3       1 <0>         0.1332
     12 Cl1         4.0046   -3.6248    5.9242 Cl        1 <0>         0.0459
     13 S2          1.7471   -2.6292   -0.1671 S.3       1 <0>         0.0911
     14 C9          1.4423   -4.3643   -0.2028 C.2       1 <0>         0.2402
     15 N1          0.7472   -5.0313    0.6728 N.2       1 <0>        -0.2679
     16 N2          0.7426   -6.3790    0.2878 N.am      1 <0>        -0.5370
     17 H3          0.3024   -7.1076    0.7529 H         1 <0>         0.4607
     18 C10         1.4627   -6.4765   -0.8489 C.2       1 <0>         0.6543
     19 O1          1.6790   -7.4968   -1.4786 O.2       1 <0>        -0.5309
     20 N3          1.8945   -5.2393   -1.1645 N.am      1 <0>        -0.5282
     21 C11         2.7093   -4.8866   -2.3298 C.3       1 <0>         0.1172
     22 C12         4.1917   -4.9902   -1.9658 C.3       1 <0>        -0.1750
     23 N4          0.0498   -0.0403    2.4564 N.4       1 <0>        -0.6303
     24 H4          1.3668    1.8251    0.0069 H         1 <0>         0.0760
     25 H5         -0.1443    1.9502   -0.9254 H         1 <0>         0.0898
     26 H6         -0.1906    1.9859    0.8536 H         1 <0>         0.0550
     27 H7         -0.8892   -0.2308   -0.0107 H         1 <0>         0.1002
     28 H8          0.6682   -0.3915   -0.8574 H         1 <0>         0.1230
     29 H9         -0.2025   -3.7211    3.3520 H         1 <0>         0.1503
     30 H10         1.1394   -4.3963    5.3242 H         1 <0>         0.1537
     31 H11         2.4875   -5.5709   -3.1488 H         1 <0>         0.1075
     32 H12         2.4811   -3.8660   -2.6373 H         1 <0>         0.0967
     33 H13         4.7980   -4.7278   -2.8328 H         1 <0>         0.0875
     34 H14         4.4135   -4.3059   -1.1469 H         1 <0>         0.0630
     35 H15         4.4199   -6.0108   -1.6584 H         1 <0>         0.0679
     36 H16        -0.9046   -0.3611    2.3921 H         1 <0>         0.4367
     37 H17         0.4704   -0.4027    3.2989 H         1 <0>         0.4371
     38 H18         0.0647    0.9683    2.4801 H         1 <0>         0.4421
@<TRIPOS>BOND
     1    1    2 1
     2    1   24 1
     3    1   25 1
     4    1   26 1
     5    2    3 1
     6    2   27 1
     7    2   28 1
     8    3    4 1
     9    3    5 1
    10    3   23 1
    11    5    6 1
    12    5    7 1
    13    5   13 1
    14    7   11 1
    15    7    8 2
    16    8    9 1
    17    8   29 1
    18    9   10 2
    19    9   30 1
    20   10   11 1
    21   10   12 1
    22   13   14 1
    23   14   20 1
    24   14   15 2
    25   15   16 1
    26   16   17 1
    27   16   18 am
    28   18   19 2
    29   18   20 am
    30   20   21 1
    31   21   22 1
    32   21   31 1
    33   21   32 1
    34   22   33 1
    35   22   34 1
    36   22   35 1
    37   23   36 1
    38   23   37 1
    39   23   38 1
@<TRIPOS>MOLECULE
ZINC63213153
   39    40     0     0     0
SMALL
USER_CHARGES

@<TRIPOS>ATOM
      1 C1          6.2200    1.3292   -3.2311 C.ar      1 <0>        -0.1470
      2 C2          5.2069    1.3758   -2.2918 C.ar      1 <0>         0.0208
      3 C3          5.2687    2.2842   -1.2521 C.ar      1 <0>        -0.6836
      4 C4          6.3444    3.1484   -1.1504 C.ar      1 <0>        -0.0022
      5 C5          7.3585    3.1036   -2.0892 C.ar      1 <0>        -0.1387
      6 C6          7.2973    2.1929   -3.1304 C.ar      1 <0>         0.1770
      7 F1          8.2878    2.1479   -4.0481 F         1 <0>        -0.1093
      8 Br1         6.4274    4.3913    0.2723 Br        1 <0>        -0.0144
      9 S1          3.9765    2.3423   -0.0557 S.o2      1 <0>         2.6816
     10 O1          3.6260    3.7109    0.0974 O.2       1 <0>        -0.9105
     11 O2          3.0302    1.3511   -0.4315 O.2       1 <0>        -0.9207
     12 N1          4.6241    1.8551    1.3885 N.pl3     1 <0>        -1.1380
     13 C7          5.0999    0.4791    1.5508 C.3       1 <0>         0.1323
     14 H1          5.3831    0.0868    0.5741 H         1 <0>         0.1152
     15 C8          3.9551   -0.3803    2.1204 C.3       1 <0>        -0.1377
     16 C9          4.4490   -1.7082    2.7256 C.3       1 <0>        -0.1276
     17 C10         5.5101   -2.3648    1.8848 C.3       1 <0>        -0.1311
     18 C11         6.8925   -1.9379    2.4195 C.3       1 <0>        -0.1310
     19 C12         7.2813   -0.6136    1.9577 C.3       1 <0>        -0.1299
     20 C13         6.3116    0.4851    2.4430 C.3       1 <0>         0.0178
     21 H2          6.0105    0.2821    3.4708 H         1 <0>         0.1621
     22 N2          6.9731    1.7946    2.3681 N.4       1 <0>        -0.6362
     23 H3          6.1734    0.6161   -4.0408 H         1 <0>         0.1643
     24 H4          4.3665    0.7022   -2.3707 H         1 <0>         0.1705
     25 H5          8.1980    3.7786   -2.0104 H         1 <0>         0.1635
     26 H6          4.6883    2.4809    2.1269 H         1 <0>         0.4159
     27 H7          3.4400    0.1887    2.8944 H         1 <0>         0.0856
     28 H8          3.2487   -0.6000    1.3199 H         1 <0>         0.0998
     29 H9          4.8556   -1.5138    3.7181 H         1 <0>         0.0676
     30 H10         3.6029   -2.3888    2.8204 H         1 <0>         0.0823
     31 H11         5.4108   -3.4483    1.9502 H         1 <0>         0.0824
     32 H12         5.4045   -2.0465    0.8477 H         1 <0>         0.0716
     33 H13         6.8648   -1.9377    3.5091 H         1 <0>         0.0775
     34 H14         7.6379   -2.6605    2.0873 H         1 <0>         0.0889
     35 H15         8.2818   -0.3903    2.3279 H         1 <0>         0.0932
     36 H16         7.3015   -0.6117    0.8679 H         1 <0>         0.0917
     37 H17         6.3319    2.5131    2.6691 H         1 <0>         0.4295
     38 H18         7.7851    1.7959    2.9671 H         1 <0>         0.4417
     39 H19         7.2568    1.9741    1.4166 H         1 <0>         0.4251
@<TRIPOS>BOND
     1    1    6 ar
     2    1    2 ar
     3    1   23 1
     4    2    3 ar
     5    2   24 1
     6    3    4 ar
     7    3    9 1
     8    4    5 ar
     9    4    8 1
    10    5    6 ar
    11    5   25 1
    12    6    7 1
    13    9   10 2
    14    9   11 2
    15    9   12 1
    16   12   13 1
    17   12   26 1
    18   13   14 1
    19   13   20 1
    20   13   15 1
    21   15   16 1
    22   15   27 1
    23   15   28 1
    24   16   17 1
    25   16   29 1
    26   16   30 1
    27   17   18 1
    28   17   31 1
    29   17   32 1
    30   18   19 1
    31   18   33 1
    32   18   34 1
    33   19   20 1
    34   19   35 1
    35   19   36 1
    36   20   21 1
    37   20   22 1
    38   22   37 1
    39   22   38 1
    40   22   39 1
@<TRIPOS>MOLECULE
ZINC05958246
   33    33     0     0     0
SMALL
USER_CHARGES
N-carbamoyl-3-methyl-2-(2,4,5-trichlorophenoxy)-butanamide
@<TRIPOS>ATOM
      1 C1         -5.5670    3.4603   -1.1834 C.3       1 <0>        -0.1587
      2 C2         -4.2862    2.6270   -1.1049 C.3       1 <0>        -0.1023
      3 C3         -3.2091    3.2633   -1.9857 C.3       1 <0>        -0.1539
      4 C4         -3.7973    2.5787    0.3440 C.3       1 <0>         0.0676
      5 H1         -3.6113    3.5924    0.6988 H         1 <0>         0.1226
      6 C5         -4.8480    1.9292    1.2073 C.2       1 <0>         0.5320
      7 O1         -5.8916    2.5052    1.4287 O.2       1 <0>        -0.4438
      8 N1         -4.6276    0.7081    1.7334 N.am      1 <0>        -0.6824
      9 C6         -5.5988    0.0915    2.4356 C.2       1 <0>         0.6962
     10 O2         -6.6734    0.6367    2.5944 O.2       1 <0>        -0.5322
     11 N2         -5.3784   -1.1296    2.9616 N.am      1 <0>        -0.8547
     12 O3         -2.5882    1.8203    0.4137 O.3       1 <0>        -0.2914
     13 C7         -1.4230    2.5191    0.4579 C.ar      1 <0>         0.1585
     14 C8         -1.4378    3.9014    0.3462 C.ar      1 <0>        -0.1819
     15 C9         -0.2512    4.6099    0.3852 C.ar      1 <0>         0.0144
     16 C10         0.9510    3.9407    0.5425 C.ar      1 <0>        -0.0559
     17 C11         0.9672    2.5626    0.6599 C.ar      1 <0>        -0.0496
     18 C12        -0.2174    1.8506    0.6203 C.ar      1 <0>        -0.0546
     19 Cl1        -0.1964    0.1209    0.7665 Cl        1 <0>        -0.0313
     20 Cl2         2.4396    4.8325    0.5919 Cl        1 <0>        -0.0296
     21 Cl3        -0.2684    6.3396    0.2376 Cl        1 <0>        -0.0264
     22 H2         -5.3648    4.4716   -0.8306 H         1 <0>         0.0619
     23 H3         -5.9130    3.4982   -2.2164 H         1 <0>         0.0681
     24 H4         -6.3357    3.0046   -0.5593 H         1 <0>         0.0769
     25 H5         -4.4895    1.6146   -1.4538 H         1 <0>         0.0903
     26 H6         -2.2966    2.6697   -1.9298 H         1 <0>         0.0611
     27 H7         -3.5574    3.2978   -3.0180 H         1 <0>         0.0719
     28 H8         -3.0058    4.2758   -1.6368 H         1 <0>         0.0611
     29 H9         -3.7700    0.2730    1.6066 H         1 <0>         0.4177
     30 H10        -4.5207   -1.5647    2.8348 H         1 <0>         0.4012
     31 H11        -6.0774   -1.5734    3.4670 H         1 <0>         0.4222
     32 H12        -2.3752    4.4237    0.2242 H         1 <0>         0.1620
     33 H13         1.9057    2.0423    0.7821 H         1 <0>         0.1630
@<TRIPOS>BOND
     1    1    2 1
     2    1   22 1
     3    1   23 1
     4    1   24 1
     5    2    3 1
     6    2    4 1
     7    2   25 1
     8    3   26 1
     9    3   27 1
    10    3   28 1
    11    4    5 1
    12    4    6 1
    13    4   12 1
    14    6    7 2
    15    6    8 am
    16    8    9 am
    17    8   29 1
    18    9   10 2
    19    9   11 am
    20   11   30 1
    21   11   31 1
    22   12   13 1
    23   13   18 ar
    24   13   14 ar
    25   14   15 ar
    26   14   32 1
    27   15   16 ar
    28   15   21 1
    29   16   17 ar
    30   16   20 1
    31   17   18 ar
    32   17   33 1
    33   18   19 1
@<TRIPOS>MOLECULE
ZINC36814027
   31    33     0     0     0
SMALL
USER_CHARGES

@<TRIPOS>ATOM
      1 C1          1.5412    1.4072    1.1739 C.ar      1 <0>        -0.1300
      2 C2          1.1739    2.0875    0.0217 C.ar      1 <0>         0.1195
      3 C3          0.8206    1.3784   -1.1175 C.ar      1 <0>        -0.1106
      4 C4          0.8352   -0.0040   -1.1024 C.ar      1 <0>        -0.0083
      5 C5          1.2018   -0.6805    0.0477 C.ar      1 <0>        -0.1041
      6 C6          1.5545    0.0247    1.1848 C.ar      1 <0>        -0.0092
      7 Cl1         2.0145   -0.8269    2.6259 Cl        1 <0>        -0.0418
      8 Cl2         0.3927   -0.8918   -2.5271 Cl        1 <0>        -0.0399
      9 O1          1.1597    3.4460    0.0090 O.3       1 <0>        -0.2468
     10 C7          2.3499    4.0981    0.1059 C.ar      1 <0>         0.0451
     11 C8          3.5362    3.3817    0.0834 C.ar      1 <0>        -0.1459
     12 C9          4.7467    4.0482    0.1821 C.ar      1 <0>         0.0702
     13 C10         4.7732    5.4364    0.3042 C.ar      1 <0>         0.1078
     14 C11         3.5891    6.1522    0.3260 C.ar      1 <0>        -0.1590
     15 C12         2.3759    5.4857    0.2218 C.ar      1 <0>         0.2243
     16 N1          1.1761    6.2094    0.2381 N.pl3     1 <0>        -0.8652
     17 O2          5.9703    6.0763    0.4025 O.3       1 <0>        -0.2987
     18 C13         7.0203    5.3762    1.0748 C.3       1 <0>         0.0512
     19 C14         7.0870    3.9572    0.5700 C.2       1 <0>         0.4901
     20 O3          8.1497    3.3735    0.5324 O.2       1 <0>        -0.5109
     21 N2          5.9584    3.3383    0.1602 N.am      1 <0>        -0.6561
     22 H1          1.8208    1.9573    2.0603 H         1 <0>         0.1492
     23 H2          0.5340    1.9060   -2.0152 H         1 <0>         0.1521
     24 H3          1.2127   -1.7604    0.0579 H         1 <0>         0.1517
     25 H4          3.5170    2.3059   -0.0105 H         1 <0>         0.1387
     26 H5          3.6089    7.2279    0.4202 H         1 <0>         0.1503
     27 H6          0.3279    5.7439    0.1687 H         1 <0>         0.4075
     28 H7          1.1937    7.1759    0.3189 H         1 <0>         0.4037
     29 H8          7.9702    5.8749    0.8823 H         1 <0>         0.1478
     30 H9          6.8244    5.3710    2.1471 H         1 <0>         0.1019
     31 H10         5.9844    2.4178   -0.1445 H         1 <0>         0.4153
@<TRIPOS>BOND
     1    1    6 ar
     2    1    2 ar
     3    1   22 1
     4    2    3 ar
     5    2    9 1
     6    3    4 ar
     7    3   23 1
     8    4    5 ar
     9    4    8 1
    10    5    6 ar
    11    5   24 1
    12    6    7 1
    13    9   10 1
    14   10   15 ar
    15   10   11 ar
    16   11   12 ar
    17   11   25 1
    18   12   21 1
    19   12   13 ar
    20   13   14 ar
    21   13   17 1
    22   14   15 ar
    23   14   26 1
    24   15   16 1
    25   16   27 1
    26   16   28 1
    27   17   18 1
    28   18   19 1
    29   18   29 1
    30   18   30 1
    31   19   20 2
    32   19   21 am
    33   21   31 1
@<TRIPOS>MOLECULE
ZINC33870849
   50    53     0     0     0
SMALL
USER_CHARGES

@<TRIPOS>ATOM
      1 C1          0.1348    1.8720   -0.5792 C.3       1 <0>        -0.1483
      2 C2         -0.0263    0.3575   -0.4164 C.3       1 <0>        -0.0750
      3 H1         -1.1065    0.1323   -0.5234 H         1 <0>         0.0745
      4 C3          0.7200   -0.3894   -1.5208 C.3       1 <0>        -0.0902
      5 H2          0.5730    0.0404   -2.5218 H         1 <0>         0.0837
      6 C4          0.3861   -1.8998   -1.4323 C.3       1 <0>        -0.1466
      7 C5          1.5143   -1.9282   -0.3795 C.3       1 <0>        -0.0973
      8 H3          2.0892   -2.8643   -0.3575 H         1 <0>         0.0810
      9 C6          2.1576   -0.8001   -1.1983 C.3       1 <0>        -0.0733
     10 C7          3.0013    0.1892   -0.4008 C.3       1 <0>        -0.1464
     11 C8          2.9322   -1.3159   -2.4274 C.3       1 <0>        -0.1311
     12 C9          1.0079   -1.4848    0.9923 C.3       1 <0>        -0.1113
     13 C10         0.4089   -0.0832    0.9753 C.3       1 <0>         0.1560
     14 H4          1.1313    0.6348    1.3837 H         1 <0>         0.0950
     15 N1         -0.7653   -0.0594    1.8695 N.am      1 <0>        -0.7140
     16 C11        -0.5974    0.0912    3.1983 C.2       1 <0>         0.6054
     17 O1          0.5214    0.2074    3.6605 O.2       1 <0>        -0.5348
     18 C12        -1.7703    0.1151    4.0915 C.2       1 <0>        -0.0696
     19 C13        -1.7515    0.2648    5.4450 C.2       1 <0>         0.0118
     20 O2         -3.0269    0.2307    5.8648 O.3       1 <0>        -0.1918
     21 C14        -3.8180    0.0630    4.7902 C.2       1 <0>         0.2624
     22 N2         -3.0707   -0.0024    3.7166 N.2       1 <0>        -0.4637
     23 C15        -5.2925   -0.0274    4.8159 C.ar      1 <0>        -0.0929
     24 C16        -6.0032   -0.2089    3.6276 C.ar      1 <0>        -0.0140
     25 C17        -7.3779   -0.2932    3.6549 C.ar      1 <0>        -0.2030
     26 C18        -8.0581   -0.1973    4.8643 C.ar      1 <0>         0.2420
     27 C19        -7.3530   -0.0160    6.0496 C.ar      1 <0>        -0.2017
     28 C20        -5.9779    0.0628    6.0294 C.ar      1 <0>        -0.0321
     29 N3         -9.4493   -0.2826    4.8887 N.pl3     1 <0>        -0.8687
     30 H5          1.1872    2.1381   -0.4806 H         1 <0>         0.0605
     31 H6         -0.2252    2.1719   -1.5634 H         1 <0>         0.0601
     32 H7         -0.4430    2.3836    0.1905 H         1 <0>         0.0559
     33 H8         -0.6043   -2.0959   -1.0149 H         1 <0>         0.0652
     34 H9          0.5820   -2.4627   -2.3362 H         1 <0>         0.0865
     35 H10         2.6003    0.2774    0.6089 H         1 <0>         0.0651
     36 H11         4.0305   -0.1668   -0.3531 H         1 <0>         0.0557
     37 H12         2.9762    1.1638   -0.8882 H         1 <0>         0.0572
     38 H13         2.9756   -0.5329   -3.1844 H         1 <0>         0.0583
     39 H14         3.9444   -1.5903   -2.1301 H         1 <0>         0.0588
     40 H15         2.4244   -2.1892   -2.8367 H         1 <0>         0.0576
     41 H16         0.2447   -2.1974    1.3407 H         1 <0>         0.0685
     42 H17         1.8325   -1.5217    1.7171 H         1 <0>         0.0729
     43 H18        -1.6577   -0.1521    1.5008 H         1 <0>         0.4066
     44 H19        -0.8754    0.3876    6.0645 H         1 <0>         0.2314
     45 H20        -5.4757   -0.2828    2.6881 H         1 <0>         0.1377
     46 H21        -7.9281   -0.4336    2.7362 H         1 <0>         0.1306
     47 H22        -7.8839    0.0585    6.9871 H         1 <0>         0.1297
     48 H23        -5.4307    0.1987    6.9505 H         1 <0>         0.1316
     49 H24        -9.9420   -0.4087    4.0627 H         1 <0>         0.4022
     50 H25        -9.9246   -0.2158    5.7316 H         1 <0>         0.4020
@<TRIPOS>BOND
     1    1    2 1
     2    1   30 1
     3    1   31 1
     4    1   32 1
     5    2    3 1
     6    2   13 1
     7    2    4 1
     8    4    5 1
     9    4    9 1
    10    4    6 1
    11    6    7 1
    12    6   33 1
    13    6   34 1
    14    7    8 1
    15    7    9 1
    16    7   12 1
    17    9   10 1
    18    9   11 1
    19   10   35 1
    20   10   36 1
    21   10   37 1
    22   11   38 1
    23   11   39 1
    24   11   40 1
    25   12   13 1
    26   12   41 1
    27   12   42 1
    28   13   14 1
    29   13   15 1
    30   15   16 am
    31   15   43 1
    32   16   17 2
    33   16   18 1
    34   18   22 1
    35   18   19 2
    36   19   20 1
    37   19   44 1
    38   20   21 1
    39   21   22 2
    40   21   23 1
    41   23   28 ar
    42   23   24 ar
    43   24   25 ar
    44   24   45 1
    45   25   26 ar
    46   25   46 1
    47   26   27 ar
    48   26   29 1
    49   27   28 ar
    50   27   47 1
    51   28   48 1
    52   29   49 1
    53   29   50 1
@<TRIPOS>MOLECULE
ZINC00530593
   39    42     0     0     0
SMALL
USER_CHARGES

@<TRIPOS>ATOM
      1 C1         -0.0167    1.3781    0.0096 C.ar      1 <0>        -0.1109
      2 C2          1.1709    2.0855    0.0021 C.ar      1 <0>        -0.1165
      3 C3          2.3773    1.4107   -0.0130 C.ar      1 <0>        -0.1019
      4 C4          2.3960    0.0285   -0.0201 C.ar      1 <0>        -0.1009
      5 C5          1.2084   -0.6789   -0.0117 C.ar      1 <0>        -0.1044
      6 C6          0.0021   -0.0041    0.0020 C.ar      1 <0>        -0.1167
      7 C7          3.7112   -0.7071   -0.0376 C.3       1 <0>         0.2008
      8 H1          4.4978   -0.0419   -0.3937 H         1 <0>         0.0872
      9 C8          4.0485   -1.1919    1.3771 C.3       1 <0>        -0.1410
     10 C9          5.4124   -1.8933    1.3725 C.3       1 <0>         0.2137
     11 H2          6.2016   -1.1563    1.2234 H         1 <0>         0.0984
     12 N1          5.4386   -2.8671    0.2814 N.pl3     1 <0>        -0.4074
     13 C10         4.5941   -2.8497   -0.7774 C.2       1 <0>         0.5486
     14 N2          4.8929   -3.8576   -1.5531 N.2       1 <0>        -0.5990
     15 C11         5.9209   -4.5383   -1.0253 C.2       1 <0>         0.4895
     16 N3          6.2840   -3.9622    0.0990 N.2       1 <0>        -0.3631
     17 N4          6.5101   -5.6752   -1.5804 N.pl3     1 <0>        -0.8253
     18 N5          3.6117   -1.8786   -0.9294 N.pl3     1 <0>        -0.7041
     19 C12         5.6220   -2.5985    2.6877 C.ar      1 <0>        -0.0860
     20 C13         4.7450   -3.5895    3.0877 C.ar      1 <0>        -0.0760
     21 C14         4.9367   -4.2367    4.2938 C.ar      1 <0>        -0.1100
     22 C15         6.0065   -3.8926    5.1008 C.ar      1 <0>        -0.0254
     23 C16         6.8838   -2.9008    4.7000 C.ar      1 <0>        -0.1097
     24 C17         6.6943   -2.2582    3.4910 C.ar      1 <0>        -0.0834
     25 Cl1         6.2476   -4.7047    6.6161 Cl        1 <0>        -0.0664
     26 H3         -0.9591    1.9053    0.0259 H         1 <0>         0.1249
     27 H4          1.1563    3.1654    0.0076 H         1 <0>         0.1267
     28 H5          3.3051    1.9634   -0.0196 H         1 <0>         0.1266
     29 H6          1.2231   -1.7588   -0.0176 H         1 <0>         0.1241
     30 H7         -0.9258   -0.5567    0.0082 H         1 <0>         0.1255
     31 H8          4.0819   -0.3386    2.0544 H         1 <0>         0.1111
     32 H9          3.2825   -1.8908    1.7131 H         1 <0>         0.0890
     33 H10         6.1772   -6.0343   -2.4178 H         1 <0>         0.4131
     34 H11         7.2526   -6.1062   -1.1289 H         1 <0>         0.4132
     35 H12         2.8993   -1.9668   -1.5818 H         1 <0>         0.4260
     36 H13         3.9097   -3.8578    2.4578 H         1 <0>         0.1241
     37 H14         4.2513   -5.0106    4.6064 H         1 <0>         0.1343
     38 H15         7.7189   -2.6315    5.3296 H         1 <0>         0.1370
     39 H16         7.3818   -1.4872    3.1758 H         1 <0>         0.1345
@<TRIPOS>BOND
     1    1    6 ar
     2    1    2 ar
     3    1   26 1
     4    2    3 ar
     5    2   27 1
     6    3    4 ar
     7    3   28 1
     8    4    5 ar
     9    4    7 1
    10    5    6 ar
    11    5   29 1
    12    6   30 1
    13    7    8 1
    14    7   18 1
    15    7    9 1
    16    9   10 1
    17    9   31 1
    18    9   32 1
    19   10   11 1
    20   10   12 1
    21   10   19 1
    22   12   16 1
    23   12   13 1
    24   13   14 2
    25   13   18 1
    26   14   15 1
    27   15   16 2
    28   15   17 1
    29   17   33 1
    30   17   34 1
    31   18   35 1
    32   19   24 ar
    33   19   20 ar
    34   20   21 ar
    35   20   36 1
    36   21   22 ar
    37   21   37 1
    38   22   23 ar
    39   22   25 1
    40   23   24 ar
    41   23   38 1
    42   24   39 1
@<TRIPOS>MOLECULE
ZINC58863524
   38    40     0     0     0
SMALL
USER_CHARGES

@<TRIPOS>ATOM
      1 C1         -1.2650    1.1836    0.1820 C.3       1 <0>        -0.1175
      2 C2         -0.5846   -0.1575    0.0846 C.ar      1 <0>        -0.1101
      3 C3         -0.5699   -0.8398   -1.1164 C.ar      1 <0>        -0.1024
      4 C4          0.0537   -2.0704   -1.2065 C.ar      1 <0>        -0.1270
      5 C5          0.6647   -2.6223   -0.0952 C.ar      1 <0>        -0.1061
      6 C6          0.6539   -1.9451    1.1082 C.ar      1 <0>        -0.1143
      7 C7          0.0333   -0.7060    1.2005 C.ar      1 <0>         0.1533
      8 N1          0.0256   -0.0145    2.4171 N.am      1 <0>        -0.6814
      9 C8         -0.0559   -0.6942    3.5781 C.2       1 <0>         0.7152
     10 O1         -0.0400   -1.9099    3.5732 O.2       1 <0>        -0.5452
     11 N2         -0.1550   -0.0262    4.7445 N.am      1 <0>        -0.5208
     12 N3         -0.1733    1.3746    4.7502 N.am      1 <0>        -0.5253
     13 C9         -0.2724    2.0426    5.9166 C.2       1 <0>         0.6121
     14 O2         -0.3459    1.4291    6.9644 O.2       1 <0>        -0.5080
     15 C10        -0.2916    3.5125    5.9225 C.2       1 <0>        -0.2043
     16 C11        -0.3794    4.3542    6.9863 C.2       1 <0>        -0.0334
     17 C12        -0.3819    5.7458    6.7821 C.ar      1 <0>        -0.1120
     18 C13        -0.4658    6.7763    7.7539 C.ar      1 <0>        -0.0550
     19 C14        -0.4556    8.0825    7.3838 C.ar      1 <0>        -0.1259
     20 C15        -0.3640    8.4614    6.0497 C.ar      1 <0>        -0.0720
     21 C16        -0.2804    7.4914    5.0718 C.ar      1 <0>        -0.0858
     22 C17        -0.2891    6.1606    5.4323 C.ar      1 <0>        -0.0897
     23 S1         -0.1976    4.6314    4.5356 S.3       1 <0>         0.0610
     24 H1         -0.5498    1.9719   -0.0528 H         1 <0>         0.0729
     25 H2         -2.0938    1.2227   -0.5248 H         1 <0>         0.0748
     26 H3         -1.6436    1.3262    1.1941 H         1 <0>         0.0603
     27 H4         -1.0465   -0.4116   -1.9859 H         1 <0>         0.1274
     28 H5          0.0635   -2.6021   -2.1465 H         1 <0>         0.1249
     29 H6          1.1504   -3.5841   -0.1686 H         1 <0>         0.1271
     30 H7          1.1312   -2.3766    1.9756 H         1 <0>         0.1418
     31 H8          0.0789    0.9540    2.4249 H         1 <0>         0.4006
     32 H9         -0.2136   -0.5154    5.5801 H         1 <0>         0.4495
     33 H10        -0.1146    1.8638    3.9146 H         1 <0>         0.4194
     34 H11        -0.4475    3.9548    7.9874 H         1 <0>         0.1515
     35 H12        -0.5389    6.5185    8.8001 H         1 <0>         0.1326
     36 H13        -0.5208    8.8461    8.1448 H         1 <0>         0.1337
     37 H14        -0.3586    9.5073    5.7804 H         1 <0>         0.1406
     38 H15        -0.2091    7.7726    4.0315 H         1 <0>         0.1374
@<TRIPOS>BOND
     1    1    2 1
     2    1   24 1
     3    1   25 1
     4    1   26 1
     5    2    7 ar
     6    2    3 ar
     7    3    4 ar
     8    3   27 1
     9    4    5 ar
    10    4   28 1
    11    5    6 ar
    12    5   29 1
    13    6    7 ar
    14    6   30 1
    15    7    8 1
    16    8    9 am
    17    8   31 1
    18    9   10 2
    19    9   11 am
    20   11   12 1
    21   11   32 1
    22   12   13 am
    23   12   33 1
    24   13   14 2
    25   13   15 1
    26   15   23 1
    27   15   16 2
    28   16   17 1
    29   16   34 1
    30   17   22 ar
    31   17   18 ar
    32   18   19 ar
    33   18   35 1
    34   19   20 ar
    35   19   36 1
    36   20   21 ar
    37   20   37 1
    38   21   22 ar
    39   21   38 1
    40   22   23 1
@<TRIPOS>MOLECULE
ZINC04554037
   46    49     0     0     0
SMALL
USER_CHARGES
2-(2-furyl)vinyl-isopropyl-BLAHol
@<TRIPOS>ATOM
      1 C1         -5.2490   -6.0133    0.8719 C.3       1 <0>        -0.1833
      2 C2         -6.3465   -4.9678    0.6636 C.3       1 <0>         0.0296
      3 C3         -7.2385   -4.9104    1.9053 C.3       1 <0>        -0.1863
      4 C4         -4.9147   -3.6527   -0.7806 C.3       1 <0>        -0.0016
      5 C5         -4.5976   -2.2154   -1.2025 C.3       1 <0>        -0.0848
      6 C6         -4.0193   -1.4819    0.0026 C.2       1 <0>        -0.0039
      7 C7         -4.1951   -1.9851    1.2483 C.2       1 <0>        -0.3170
      8 S1         -3.3743   -0.8387    2.3218 S.3       1 <0>         0.2336
      9 C8         -2.8137    0.2716    1.1466 C.2       1 <0>         0.1550
     10 C9         -3.2691   -0.2435   -0.0748 C.2       1 <0>        -0.2582
     11 C10        -2.9438    0.5301   -1.3011 C.2       1 <0>         0.4543
     12 N1         -2.0632    1.4881   -1.1977 N.2       1 <0>        -0.6224
     13 C11        -1.3278    1.8115    0.0182 C.3       1 <0>         0.3824
     14 H1         -1.1350    2.8841    0.0415 H         1 <0>         0.1253
     15 N2         -2.0825    1.4316    1.2271 N.pl3     1 <0>        -0.6863
     16 C12        -0.0126    1.0758    0.0080 C.2       1 <0>        -0.1803
     17 C13         1.1300    1.7564    0.0007 C.2       1 <0>        -0.0335
     18 C14         2.4134    1.0384   -0.0154 C.2       1 <0>        -0.0078
     19 C15         3.6498    1.6103   -0.0241 C.2       1 <0>        -0.1733
     20 C16         4.5837    0.5563   -0.0387 C.2       1 <0>        -0.2128
     21 C17         3.8817   -0.5943   -0.0382 C.2       1 <0>        -0.0263
     22 O1          2.5715   -0.2998   -0.0182 O.3       1 <0>        -0.1759
     23 O2         -3.5399    0.2516   -2.4835 O.3       1 <0>        -0.4601
     24 C18        -4.9296   -3.2382    1.6061 C.3       1 <0>         0.1066
     25 H2         -4.6475   -5.7409    1.7391 H         1 <0>         0.0810
     26 H3         -5.7042   -6.9897    1.0378 H         1 <0>         0.1062
     27 H4         -4.6135   -6.0542   -0.0127 H         1 <0>         0.0814
     28 H5         -6.9480   -5.2402   -0.2036 H         1 <0>         0.1392
     29 H6         -6.6370   -4.6379    2.7726 H         1 <0>         0.0814
     30 H7         -8.0203   -4.1655    1.7569 H         1 <0>         0.0818
     31 H8         -7.6937   -5.8868    2.0712 H         1 <0>         0.1067
     32 H9         -3.9840   -4.1876   -0.5914 H         1 <0>         0.1328
     33 H10        -5.4612   -4.1503   -1.5817 H         1 <0>         0.1362
     34 H11        -3.8689   -2.2224   -2.0131 H         1 <0>         0.1281
     35 H12        -5.5102   -1.7192   -1.5327 H         1 <0>         0.1092
     36 H13        -2.0633    1.9703    2.0335 H         1 <0>         0.4249
     37 H14         0.0021   -0.0041    0.0020 H         1 <0>         0.1152
     38 H15         1.1153    2.8362    0.0066 H         1 <0>         0.1499
     39 H16         3.8710    2.6674   -0.0203 H         1 <0>         0.1550
     40 H17         5.6595    0.6520   -0.0480 H         1 <0>         0.1552
     41 H18         4.3031   -1.5887   -0.0479 H         1 <0>         0.2075
     42 H19        -3.2518    0.8181   -3.2123 H         1 <0>         0.4169
     43 H20        -4.2164   -4.0231    1.8582 H         1 <0>         0.1417
     44 H21        -5.5853   -3.0499    2.4562 H         1 <0>         0.1379
     45 N3         -5.7517   -3.6329    0.4365 N.4       1 <0>        -0.3915
     46 H22        -6.5066   -2.9481    0.3120 H         1 <0>         0.4303
@<TRIPOS>BOND
     1    1    2 1
     2    1   25 1
     3    1   26 1
     4    1   27 1
     5    2    3 1
     6    2   28 1
     7    2   45 1
     8    3   29 1
     9    3   30 1
    10    3   31 1
    11    4    5 1
    12    4   32 1
    13    4   33 1
    14    4   45 1
    15    5    6 1
    16    5   34 1
    17    5   35 1
    18    6   10 1
    19    6    7 2
    20    7    8 1
    21    7   24 1
    22    8    9 1
    23    9   15 1
    24    9   10 2
    25   10   11 1
    26   11   12 2
    27   11   23 1
    28   12   13 1
    29   13   14 1
    30   13   15 1
    31   13   16 1
    32   15   36 1
    33   16   17 2
    34   16   37 1
    35   17   18 1
    36   17   38 1
    37   18   22 1
    38   18   19 2
    39   19   20 1
    40   19   39 1
    41   20   21 2
    42   20   40 1
    43   21   22 1
    44   21   41 1
    45   23   42 1
    46   24   43 1
    47   24   44 1
    48   24   45 1
    49   45   46 1
@<TRIPOS>MOLECULE
ZINC29219264
   51    52     0     0     0
SMALL
USER_CHARGES
(2R)-2-(azepan-1-yl)-N-[(2,4-dimethylphenyl)carbamoyl]propanamide
@<TRIPOS>ATOM
      1 C1         -4.7966    7.7491    6.1310 C.3       1 <0>        -0.1205
      2 C2         -3.9928    7.1013    5.0331 C.ar      1 <0>        -0.0905
      3 C3         -4.1652    5.7580    4.7524 C.ar      1 <0>        -0.1029
      4 C4         -3.4296    5.1612    3.7475 C.ar      1 <0>        -0.1298
      5 C5         -2.5162    5.9115    3.0182 C.ar      1 <0>         0.1453
      6 C6         -2.3417    7.2586    3.3060 C.ar      1 <0>        -0.1080
      7 C7         -3.0844    7.8509    4.3089 C.ar      1 <0>        -0.0989
      8 C8         -1.3473    8.0749    2.5213 C.3       1 <0>        -0.1179
      9 N1         -1.7693    5.3097    1.9993 N.am      1 <0>        -0.6737
     10 C9         -1.6066    3.9719    1.9832 C.2       1 <0>         0.6955
     11 O1         -2.0276    3.2974    2.9025 O.2       1 <0>        -0.5044
     12 N2         -0.9771    3.3821    0.9477 N.am      1 <0>        -0.6899
     13 C10        -0.8143    2.0443    0.9316 C.2       1 <0>         0.5178
     14 O2         -1.2343    1.3715    1.8486 O.2       1 <0>        -0.4518
     15 C11        -0.1104    1.3847   -0.2262 C.3       1 <0>         0.0185
     16 H1         -0.3995    1.8776   -1.1661 H         1 <0>         0.1574
     17 C12         1.4027    1.4583   -0.0120 C.3       1 <0>        -0.1815
     18 N3         -0.5247   -0.0219   -0.3141 N.4       1 <0>        -0.3951
     19 C13         0.2749   -0.7480   -1.3260 C.3       1 <0>        -0.0047
     20 C14        -0.2851   -2.1070   -1.6469 C.3       1 <0>        -0.1442
     21 C15        -1.2094   -1.9780   -2.8759 C.3       1 <0>        -0.1317
     22 C16        -2.5169   -1.4332   -2.5270 C.3       1 <0>        -0.1347
     23 C17        -2.4161   -0.0148   -1.9277 C.3       1 <0>        -0.1473
     24 C18        -1.9900   -0.1333   -0.4898 C.3       1 <0>        -0.0086
     25 H2         -5.4599    7.0012    6.5899 H         1 <0>         0.0675
     26 H3         -5.4010    8.5660    5.7098 H         1 <0>         0.0726
     27 H4         -4.1156    8.1529    6.8946 H         1 <0>         0.0725
     28 H5         -4.8755    5.1752    5.3198 H         1 <0>         0.1271
     29 H6         -3.5641    4.1121    3.5293 H         1 <0>         0.1494
     30 H7         -2.9519    8.8995    4.5307 H         1 <0>         0.1296
     31 H8         -1.3505    9.1109    2.8909 H         1 <0>         0.0764
     32 H9         -1.6234    8.0646    1.4566 H         1 <0>         0.0673
     33 H10        -0.3422    7.6450    2.6437 H         1 <0>         0.0683
     34 H11        -1.3150    5.9285    1.2115 H         1 <0>         0.4332
     35 H12        -0.5962    3.9926    0.1157 H         1 <0>         0.4439
     36 H13         1.9165    0.9768   -0.8571 H         1 <0>         0.1025
     37 H14         1.6665    0.9394    0.9213 H         1 <0>         0.0934
     38 H15         1.7129    2.5116    0.0538 H         1 <0>         0.1114
     39 H16         0.3005   -0.1665   -2.2594 H         1 <0>         0.1272
     40 H17         1.3001   -0.8870   -0.9524 H         1 <0>         0.1356
     41 H18         0.5396   -2.8004   -1.8685 H         1 <0>         0.1138
     42 H19        -0.8569   -2.4809   -0.7848 H         1 <0>         0.0877
     43 H20        -0.7459   -1.3075   -3.6145 H         1 <0>         0.0739
     44 H21        -1.3616   -2.9701   -3.3260 H         1 <0>         0.0869
     45 H22        -3.1442   -1.3793   -3.4290 H         1 <0>         0.0854
     46 H23        -2.9991   -2.0848   -1.7835 H         1 <0>         0.0750
     47 H24        -1.6746    0.5698   -2.4920 H         1 <0>         0.0819
     48 H25        -3.3967    0.4798   -1.9891 H         1 <0>         0.1077
     49 H26        -2.3305   -1.1110   -0.1183 H         1 <0>         0.1369
     50 H27        -2.4890    0.6677    0.0753 H         1 <0>         0.1252
     51 H28        -0.3058   -0.5174    0.6433 H         1 <0>         0.4492
@<TRIPOS>BOND
     1    1    2 1
     2    1   25 1
     3    1   26 1
     4    1   27 1
     5    2    7 ar
     6    2    3 ar
     7    3    4 ar
     8    3   28 1
     9    4    5 ar
    10    4   29 1
    11    5    6 ar
    12    5    9 1
    13    6    7 ar
    14    6    8 1
    15    7   30 1
    16    8   31 1
    17    8   32 1
    18    8   33 1
    19    9   10 am
    20    9   34 1
    21   10   11 2
    22   10   12 am
    23   12   13 am
    24   12   35 1
    25   13   14 2
    26   13   15 1
    27   15   16 1
    28   15   17 1
    29   15   18 1
    30   17   36 1
    31   17   37 1
    32   17   38 1
    33   18   24 1
    34   18   19 1
    35   18   51 1
    36   19   20 1
    37   19   39 1
    38   19   40 1
    39   20   21 1
    40   20   41 1
    41   20   42 1
    42   21   22 1
    43   21   43 1
    44   21   44 1
    45   22   23 1
    46   22   45 1
    47   22   46 1
    48   23   24 1
    49   23   47 1
    50   23   48 1
    51   24   49 1
    52   24   50 1
@<TRIPOS>MOLECULE
ZINC39976634
   48    50     0     0     0
SMALL
USER_CHARGES

@<TRIPOS>ATOM
      1 C1          0.9144   -3.2315    1.4605 C.3       1 <0>        -0.1196
      2 C2          2.1929   -2.4388    1.3705 C.ar      1 <0>        -0.0956
      3 C3          3.3276   -3.0154    0.8345 C.ar      1 <0>        -0.1203
      4 C4          4.5012   -2.2887    0.7516 C.ar      1 <0>        -0.1123
      5 C5          4.5429   -0.9827    1.2044 C.ar      1 <0>        -0.1186
      6 C6          3.4119   -0.4000    1.7415 C.ar      1 <0>        -0.0831
      7 C7          2.2299   -1.1255    1.8215 C.ar      1 <0>         0.1453
      8 N1          1.0828   -0.5375    2.3593 N.pl3     1 <0>        -0.7503
      9 C8          0.5608   -0.9958    3.6491 C.3       1 <0>         0.1598
     10 H1          1.0094   -1.9565    3.9021 H         1 <0>         0.1122
     11 C9         -0.9587   -1.1506    3.5584 C.3       1 <0>        -0.1703
     12 C10         0.9001    0.0134    4.7156 C.2       1 <0>         0.4942
     13 O1          1.5170    1.0165    4.4268 O.2       1 <0>        -0.4386
     14 N2          0.5177   -0.1990    5.9905 N.am      1 <0>        -0.5846
     15 N3          0.8331    0.7393    6.9819 N.2       1 <0>        -0.1026
     16 C11         0.5860    0.4711    8.2394 C.2       1 <0>         0.0509
     17 C12         0.1374   -0.8050    8.6090 C.2       1 <0>         0.0575
     18 C13        -0.0185   -1.3012    9.9011 C.ar      1 <0>        -0.1365
     19 C14         0.2048   -0.7334   11.1751 C.ar      1 <0>        -0.0201
     20 C15        -0.0379   -1.4667   12.2904 C.ar      1 <0>        -0.1400
     21 C16        -0.5074   -2.7814   12.2154 C.ar      1 <0>         0.0485
     22 C17        -0.7438   -3.3899   11.0286 C.ar      1 <0>        -0.2017
     23 C18        -0.5133   -2.6865    9.8162 C.ar      1 <0>         0.3140
     24 N4         -0.6618   -3.0461    8.5587 N.pl3     1 <0>        -0.5928
     25 C19        -0.2848   -1.9284    7.6880 C.3       1 <0>         0.0465
     26 C20         3.4584    1.0231    2.2352 C.3       1 <0>        -0.1339
     27 H2          0.4675   -3.3138    0.4697 H         1 <0>         0.0726
     28 H3          1.1311   -4.2281    1.8452 H         1 <0>         0.0641
     29 H4          0.2199   -2.7261    2.1315 H         1 <0>         0.0689
     30 H5          3.2984   -4.0351    0.4799 H         1 <0>         0.1238
     31 H6          5.3872   -2.7422    0.3326 H         1 <0>         0.1247
     32 H7          5.4611   -0.4180    1.1381 H         1 <0>         0.1239
     33 H8          0.6318    0.1743    1.8788 H         1 <0>         0.4069
     34 H9         -1.3450   -1.5090    4.5126 H         1 <0>         0.0603
     35 H10        -1.4088   -0.1861    3.3233 H         1 <0>         0.0772
     36 H11        -1.2047   -1.8671    2.7746 H         1 <0>         0.0935
     37 H12         0.0241   -1.0014    6.2215 H         1 <0>         0.3836
     38 H13         0.7276    1.2327    8.9919 H         1 <0>         0.2198
     39 H14         0.5677    0.2802   11.2609 H         1 <0>         0.1625
     40 H15         0.1362   -1.0241   13.2600 H         1 <0>         0.1594
     41 H16        -0.6864   -3.3275   13.1298 H         1 <0>         0.1633
     42 H17        -1.1068   -4.4068   11.0042 H         1 <0>         0.1622
     43 H18        -1.1363   -1.6175    7.0827 H         1 <0>         0.1735
     44 H19         0.5465   -2.2197    7.0459 H         1 <0>         0.1700
     45 H20         3.1006    1.6912    1.4519 H         1 <0>         0.0658
     46 H21         2.8240    1.1231    3.1159 H         1 <0>         0.1008
     47 H22         4.4844    1.2842    2.4949 H         1 <0>         0.0587
     48 H23        -0.9751   -3.9127    8.2559 H         1 <0>         0.4564
@<TRIPOS>BOND
     1    1    2 1
     2    1   27 1
     3    1   28 1
     4    1   29 1
     5    2    7 ar
     6    2    3 ar
     7    3    4 ar
     8    3   30 1
     9    4    5 ar
    10    4   31 1
    11    5    6 ar
    12    5   32 1
    13    6    7 ar
    14    6   26 1
    15    7    8 1
    16    8    9 1
    17    8   33 1
    18    9   10 1
    19    9   11 1
    20    9   12 1
    21   11   34 1
    22   11   35 1
    23   11   36 1
    24   12   13 2
    25   12   14 am
    26   14   15 1
    27   14   37 1
    28   15   16 2
    29   16   17 1
    30   16   38 1
    31   17   25 1
    32   17   18 2
    33   18   23 ar
    34   18   19 ar
    35   19   20 ar
    36   19   39 1
    37   20   21 ar
    38   20   40 1
    39   21   22 ar
    40   21   41 1
    41   22   23 ar
    42   22   42 1
    43   23   24 2
    44   24   25 1
    45   24   48 1
    46   25   43 1
    47   25   44 1
    48   26   45 1
    49   26   46 1
    50   26   47 1
@<TRIPOS>MOLECULE
ZINC51363168
   34    36     0     0     0
SMALL
USER_CHARGES

@<TRIPOS>ATOM
      1 C1         -0.0187    1.5258    0.0104 C.3       1 <0>        -0.1753
      2 C2          0.0021   -0.0041    0.0020 C.3       1 <0>         0.1203
      3 N1          0.6878   -0.4765   -1.2033 N.am      1 <0>        -0.5435
      4 C3          0.0955   -0.7474   -2.4365 C.ar      1 <0>         0.1117
      5 C4         -1.2076   -0.6732   -2.9032 C.ar      1 <0>        -0.0889
      6 C5         -1.4896   -1.0177   -4.2108 C.ar      1 <0>        -0.0896
      7 C6         -0.4754   -1.4366   -5.0544 C.ar      1 <0>        -0.1555
      8 C7          0.8254   -1.5130   -4.5963 C.ar      1 <0>        -0.0351
      9 C8          1.1182   -1.1690   -3.2858 C.ar      1 <0>         0.0462
     10 O1          2.2702   -1.1449   -2.5716 O.3       1 <0>        -0.2289
     11 C9          2.0072   -0.7232   -1.3247 C.2       1 <0>         0.6363
     12 O2          2.8312   -0.5880   -0.4408 O.2       1 <0>        -0.4557
     13 C10        -0.7919   -1.8116   -6.4792 C.3       1 <0>         0.2039
     14 H1          0.1184   -1.7684   -7.0771 H         1 <0>         0.1805
     15 C11        -1.3526   -3.2098   -6.5180 C.2       1 <0>        -0.0870
     16 C12        -0.6686   -4.3228   -6.8380 C.2       1 <0>        -0.1227
     17 C13        -1.5767   -5.4027   -6.7464 C.2       1 <0>        -0.1552
     18 C14        -2.7625   -4.8844   -6.3756 C.2       1 <0>         0.0074
     19 O3         -2.6190   -3.5566   -6.2332 O.3       1 <0>        -0.1643
     20 Br1        -4.3575   -5.8609   -6.0954 Br        1 <0>         0.0878
     21 N2         -1.7809   -0.8722   -7.0246 N.4       1 <0>        -0.6371
     22 H2          1.0039    1.9031    0.0027 H         1 <0>         0.0678
     23 H3         -0.5459    1.8868   -0.8726 H         1 <0>         0.0616
     24 H4         -0.5289    1.8773    0.9072 H         1 <0>         0.0879
     25 H5          0.5293   -0.3651    0.8851 H         1 <0>         0.1069
     26 H6         -1.0205   -0.3814    0.0098 H         1 <0>         0.0995
     27 H7         -2.0003   -0.3473   -2.2462 H         1 <0>         0.1505
     28 H8         -2.5044   -0.9604   -4.5758 H         1 <0>         0.1377
     29 H9          1.6134   -1.8405   -5.2583 H         1 <0>         0.1567
     30 H10         0.3744   -4.3805   -7.1126 H         1 <0>         0.1730
     31 H11        -1.3607   -6.4434   -6.9378 H         1 <0>         0.1752
     32 H12        -1.4055    0.0641   -6.9986 H         1 <0>         0.4461
     33 H13        -1.9928   -1.1232   -7.9786 H         1 <0>         0.4451
     34 H14        -2.6236   -0.9121   -6.4712 H         1 <0>         0.4368
@<TRIPOS>BOND
     1    1    2 1
     2    1   22 1
     3    1   23 1
     4    1   24 1
     5    2    3 1
     6    2   25 1
     7    2   26 1
     8    3   11 am
     9    3    4 1
    10    4    9 ar
    11    4    5 ar
    12    5    6 ar
    13    5   27 1
    14    6    7 ar
    15    6   28 1
    16    7    8 ar
    17    7   13 1
    18    8    9 ar
    19    8   29 1
    20    9   10 1
    21   10   11 1
    22   11   12 2
    23   13   14 1
    24   13   15 1
    25   13   21 1
    26   15   19 1
    27   15   16 2
    28   16   17 1
    29   16   30 1
    30   17   18 2
    31   17   31 1
    32   18   19 1
    33   18   20 1
    34   21   32 1
    35   21   33 1
    36   21   34 1
@<TRIPOS>MOLECULE
ZINC63295555
   46    49     0     0     0
SMALL
USER_CHARGES

@<TRIPOS>ATOM
      1 C1         -0.0127    1.0858    0.0080 C.3       1 <0>        -0.1328
      2 C2         -0.7416    1.5850   -1.2129 C.2       1 <0>         0.2449
      3 N1         -0.0392    1.8125   -2.3423 N.pl3     1 <0>        -0.7013
      4 C3         -0.8111    2.3010   -3.5045 C.3       1 <0>         0.3988
      5 H1         -0.7655    1.5952   -4.3339 H         1 <0>         0.1524
      6 S1         -2.4991    2.3641   -2.7746 S.3       1 <0>        -0.1521
      7 C4         -2.0752    1.7836   -1.1393 C.2       1 <0>        -0.3056
      8 H2          0.9182    1.6641   -2.3889 H         1 <0>         0.4276
      9 C5         -2.9599    1.5758    0.0055 C.2       1 <0>         0.6272
     10 O1         -2.5054    1.1733    1.0611 O.2       1 <0>        -0.5350
     11 N2         -4.2788    1.8297   -0.1072 N.am      1 <0>        -0.7313
     12 C6         -5.1655    1.6214    1.0402 C.3       1 <0>         0.1309
     13 C7         -6.6000    1.9810    0.6480 C.3       1 <0>        -0.1070
     14 C8         -7.5121    1.7668    1.8283 C.2       1 <0>         0.0731
     15 C9         -7.9136    2.6963    2.7251 C.ar      1 <0>        -0.1680
     16 C10        -7.6310    4.1299    2.8653 C.ar      1 <0>        -0.0113
     17 C11        -8.1909    4.8116    3.8905 C.ar      1 <0>        -0.1513
     18 C12        -9.0319    4.1848    4.8203 C.ar      1 <0>         0.0553
     19 C13        -9.3381    2.8717    4.7575 C.ar      1 <0>        -0.2104
     20 C14        -8.8051    2.0582    3.7198 C.ar      1 <0>         0.3279
     21 N3         -8.9492    0.7837    3.4486 N.pl3     1 <0>        -0.5854
     22 C15        -8.1692    0.4703    2.2461 C.3       1 <0>         0.0603
     23 N4         -0.3609    3.6319   -3.9194 N.pl3     1 <0>        -0.4577
     24 C16         0.1720    4.5818   -3.0992 C.2       1 <0>        -0.0088
     25 C17         0.4622    5.6676   -3.8443 C.2       1 <0>        -0.1852
     26 C18         0.0950    5.3775   -5.1733 C.2       1 <0>        -0.1830
     27 C19        -0.4001    4.1233   -5.1906 C.2       1 <0>        -0.0103
     28 H3          0.0021   -0.0041    0.0020 H         1 <0>         0.0942
     29 H4          1.0099    1.4631    0.0003 H         1 <0>         0.0743
     30 H5         -0.5229    1.4373    0.9048 H         1 <0>         0.1167
     31 H6         -4.6408    2.1503   -0.9481 H         1 <0>         0.4058
     32 H7         -5.1238    0.5762    1.3466 H         1 <0>         0.0795
     33 H8         -4.8450    2.2554    1.8669 H         1 <0>         0.0801
     34 H9         -6.6417    3.0262    0.3416 H         1 <0>         0.1166
     35 H10        -6.9205    1.3470   -0.1786 H         1 <0>         0.1197
     36 H11        -6.9854    4.6327    2.1606 H         1 <0>         0.1609
     37 H12        -7.9844    5.8664    3.9955 H         1 <0>         0.1581
     38 H13        -9.4517    4.7768    5.6202 H         1 <0>         0.1610
     39 H14        -9.9913    2.4364    5.4993 H         1 <0>         0.1606
     40 H15        -8.8251    0.1091    1.4539 H         1 <0>         0.1754
     41 H16        -7.4110   -0.2779    2.4772 H         1 <0>         0.1749
     42 H17         0.3333    4.4820   -2.0360 H         1 <0>         0.1552
     43 H18         0.8963    6.5900   -3.4879 H         1 <0>         0.1400
     44 H19         0.1959    6.0367   -6.0227 H         1 <0>         0.1424
     45 H20        -0.7667    3.5993   -6.0609 H         1 <0>         0.1666
     46 H21        -9.4852    0.1541    3.9558 H         1 <0>         0.4560
@<TRIPOS>BOND
     1    1   28 1
     2    1   29 1
     3    1   30 1
     4    1    2 1
     5    2    7 2
     6    2    3 1
     7    3    4 1
     8    3    8 1
     9    4    5 1
    10    4    6 1
    11    4   23 1
    12    6    7 1
    13    7    9 1
    14    9   10 2
    15    9   11 am
    16   11   12 1
    17   11   31 1
    18   12   13 1
    19   12   32 1
    20   12   33 1
    21   13   14 1
    22   13   34 1
    23   13   35 1
    24   14   22 1
    25   14   15 2
    26   15   20 ar
    27   15   16 ar
    28   16   17 ar
    29   16   36 1
    30   17   18 ar
    31   17   37 1
    32   18   19 ar
    33   18   38 1
    34   19   20 ar
    35   19   39 1
    36   20   21 2
    37   21   22 1
    38   21   46 1
    39   22   40 1
    40   22   41 1
    41   23   27 1
    42   23   24 1
    43   24   25 2
    44   24   42 1
    45   25   26 1
    46   25   43 1
    47   26   27 2
    48   26   44 1
    49   27   45 1
@<TRIPOS>MOLECULE
ZINC04239524
   34    36     0     0     0
SMALL
USER_CHARGES
N-[5-(4-bromophenyl)-1,3,4-thiadiazol-2-yl]pyrrolidine-2-carboxamide
@<TRIPOS>ATOM
      1 C1          1.1553    3.9718    0.0114 C.ar      1 <0>        -0.0552
      2 C2          1.1675    2.5924    0.0048 C.ar      1 <0>        -0.0888
      3 C3         -0.0236    1.8867    0.0124 C.ar      1 <0>        -0.0645
      4 C4         -1.2334    2.5597    0.0218 C.ar      1 <0>        -0.0879
      5 C5         -1.2586    3.9389    0.0343 C.ar      1 <0>        -0.0790
      6 C6         -0.0611    4.6559    0.0263 C.ar      1 <0>        -0.0179
      7 C7         -0.0812    6.1341    0.0329 C.2       1 <0>         0.1273
      8 N1          0.9242    7.0007    0.0265 N.2       1 <0>        -0.2514
      9 N2          0.7297    8.2469    0.0335 N.2       1 <0>        -0.2572
     10 C8         -0.4914    8.7660    0.0477 C.2       1 <0>         0.2415
     11 S1         -1.4687    7.2657    0.0440 S.3       1 <0>         0.0478
     12 N3         -0.8964   10.0951    0.0572 N.am      1 <0>        -0.5894
     13 C9          0.0237   11.0800    0.0515 C.2       1 <0>         0.5059
     14 O1          1.2051   10.8061    0.0383 O.2       1 <0>        -0.4536
     15 C10        -0.4155   12.5215    0.0618 C.3       1 <0>         0.0129
     16 H1         -1.2902   12.6555   -0.5747 H         1 <0>         0.1730
     17 C11        -0.7229   12.9814    1.5087 C.3       1 <0>        -0.1347
     18 C12        -0.5241   14.5160    1.3987 C.3       1 <0>        -0.1394
     19 C13         0.6460   14.6443    0.4007 C.3       1 <0>        -0.0082
     20 Br1         0.0021   -0.0041    0.0020 Br        1 <0>        -0.0259
     21 H2          2.0851    4.5212    0.0048 H         1 <0>         0.1493
     22 H3          2.1082    2.0619   -0.0066 H         1 <0>         0.1485
     23 H4         -2.1593    2.0038    0.0232 H         1 <0>         0.1476
     24 H5         -2.2029    4.4628    0.0454 H         1 <0>         0.1368
     25 H6         -1.8413   10.3142    0.0678 H         1 <0>         0.4380
     26 H7         -1.7491   12.7395    1.7856 H         1 <0>         0.1295
     27 H8         -0.0165   12.5458    2.2153 H         1 <0>         0.1083
     28 H9         -0.2539   14.9400    2.3658 H         1 <0>         0.1210
     29 H10        -1.4211   14.9936    1.0044 H         1 <0>         0.1073
     30 H11         1.5832   14.7713    0.9425 H         1 <0>         0.1385
     31 H12         0.4814   15.4956   -0.2599 H         1 <0>         0.1419
     32 N4          0.6826   13.4000   -0.3825 N.4       1 <0>        -0.5081
     33 H13         0.5681   13.6170   -1.3795 H         1 <0>         0.4422
     34 H14         1.5823   12.9274   -0.2362 H         1 <0>         0.4436
@<TRIPOS>BOND
     1    1    6 ar
     2    1    2 ar
     3    1   21 1
     4    2    3 ar
     5    2   22 1
     6    3    4 ar
     7    3   20 1
     8    4    5 ar
     9    4   23 1
    10    5    6 ar
    11    5   24 1
    12    6    7 1
    13    7   11 1
    14    7    8 2
    15    8    9 1
    16    9   10 2
    17   10   11 1
    18   10   12 1
    19   12   13 am
    20   12   25 1
    21   13   14 2
    22   13   15 1
    23   15   16 1
    24   15   17 1
    25   15   32 1
    26   17   18 1
    27   17   26 1
    28   17   27 1
    29   18   19 1
    30   18   28 1
    31   18   29 1
    32   19   30 1
    33   19   31 1
    34   19   32 1
    35   32   33 1
    36   32   34 1
@<TRIPOS>MOLECULE
ZINC36039437
   48    50     0     0     0
SMALL
USER_CHARGES

@<TRIPOS>ATOM
      1 C1         -0.0187    1.5258    0.0104 C.3       1 <0>        -0.1896
      2 C2          0.0021   -0.0041    0.0020 C.3       1 <0>        -0.0083
      3 N1          0.6897   -0.4778   -1.2066 N.4       1 <0>        -0.4993
      4 C3          0.7096   -1.9467   -1.2147 C.3       1 <0>         0.0021
      5 C4          1.4150   -2.4327   -2.4546 C.2       1 <0>         0.4778
      6 O1          1.8588   -1.6318   -3.2552 O.2       1 <0>        -0.6090
      7 N2          1.5520   -3.7353   -2.6730 N.2       1 <0>        -0.6531
      8 C5          2.1758   -4.1651   -3.7696 C.2       1 <0>         0.6078
      9 N3          2.7205   -3.3822   -4.7364 N.pl3     1 <0>        -0.5739
     10 C6          3.2713   -4.2175   -5.7010 C.2       1 <0>         0.0849
     11 C7          3.0592   -5.4885   -5.3165 C.2       1 <0>         0.0069
     12 N4          2.3836   -5.4647   -4.1134 N.pl3     1 <0>        -0.3887
     13 C8          1.9795   -6.5845   -3.3757 C.ar      1 <0>         0.1094
     14 C9          1.2958   -6.4191   -2.1783 C.ar      1 <0>        -0.1155
     15 C10         0.8987   -7.5254   -1.4531 C.ar      1 <0>        -0.1030
     16 C11         1.1812   -8.7967   -1.9182 C.ar      1 <0>        -0.0745
     17 C12         1.8622   -8.9647   -3.1100 C.ar      1 <0>        -0.0988
     18 C13         2.2566   -7.8625   -3.8429 C.ar      1 <0>        -0.1182
     19 C14         0.7464  -10.0016   -1.1244 C.3       1 <0>        -0.1226
     20 C15         3.9671   -3.7849   -6.9329 C.ar      1 <0>        -0.0397
     21 C16         4.4695   -4.7341   -7.8238 C.ar      1 <0>        -0.0931
     22 C17         5.1174   -4.3242   -8.9708 C.ar      1 <0>        -0.1087
     23 C18         5.2694   -2.9754   -9.2386 C.ar      1 <0>        -0.1009
     24 C19         4.7739   -2.0293   -8.3591 C.ar      1 <0>        -0.1105
     25 C20         4.1186   -2.4262   -7.2117 C.ar      1 <0>        -0.1061
     26 H1          1.0039    1.9031    0.0027 H         1 <0>         0.0810
     27 H2         -0.5459    1.8868   -0.8726 H         1 <0>         0.0810
     28 H3         -0.5289    1.8773    0.9072 H         1 <0>         0.1083
     29 H4          0.5293   -0.3651    0.8851 H         1 <0>         0.1327
     30 H5         -1.0205   -0.3814    0.0098 H         1 <0>         0.1327
     31 H6          0.2017   -0.1436   -2.0240 H         1 <0>         0.4318
     32 H7          1.2368   -2.3077   -0.3316 H         1 <0>         0.1594
     33 H8         -0.3130   -2.3239   -1.2069 H         1 <0>         0.1594
     34 H9          3.3671   -6.3734   -5.8536 H         1 <0>         0.2069
     35 H10         1.0752   -5.4265   -1.8144 H         1 <0>         0.1719
     36 H11         0.3672   -7.3975   -0.5217 H         1 <0>         0.1347
     37 H12         2.0820   -9.9588   -3.4702 H         1 <0>         0.1375
     38 H13         2.7842   -7.9944   -4.7760 H         1 <0>         0.1323
     39 H14        -0.2516  -10.3047   -1.4412 H         1 <0>         0.0777
     40 H15         1.4457  -10.8203   -1.2942 H         1 <0>         0.0724
     41 H16         0.7305   -9.7515   -0.0636 H         1 <0>         0.0717
     42 H17         4.3518   -5.7873   -7.6157 H         1 <0>         0.1310
     43 H18         5.5071   -5.0578   -9.6610 H         1 <0>         0.1355
     44 H19         5.7774   -2.6596  -10.1379 H         1 <0>         0.1324
     45 H20         4.8964   -0.9779   -8.5734 H         1 <0>         0.1317
     46 H21         3.7277   -1.6867   -6.5284 H         1 <0>         0.1179
     47 H22         1.6363   -0.1286   -1.2138 H         1 <0>         0.4318
     48 H23         2.7240   -2.4124   -4.7514 H         1 <0>         0.4525
@<TRIPOS>BOND
     1    1    2 1
     2    1   26 1
     3    1   27 1
     4    1   28 1
     5    2    3 1
     6    2   29 1
     7    2   30 1
     8    3    4 1
     9    3   31 1
    10    3   47 1
    11    4    5 1
    12    4   32 1
    13    4   33 1
    14    5    6 2
    15    5    7 1
    16    7    8 2
    17    8   12 1
    18    8    9 1
    19    9   10 1
    20    9   48 1
    21   10   11 2
    22   10   20 1
    23   11   12 1
    24   11   34 1
    25   12   13 1
    26   13   18 ar
    27   13   14 ar
    28   14   15 ar
    29   14   35 1
    30   15   16 ar
    31   15   36 1
    32   16   17 ar
    33   16   19 1
    34   17   18 ar
    35   17   37 1
    36   18   38 1
    37   19   39 1
    38   19   40 1
    39   19   41 1
    40   20   25 ar
    41   20   21 ar
    42   21   22 ar
    43   21   42 1
    44   22   23 ar
    45   22   43 1
    46   23   24 ar
    47   23   44 1
    48   24   25 ar
    49   24   45 1
    50   25   46 1
@<TRIPOS>MOLECULE
ZINC43252684
   52    54     0     0     0
SMALL
USER_CHARGES

@<TRIPOS>ATOM
      1 C1         -0.0187    1.5258    0.0104 C.3       1 <0>        -0.1533
      2 C2          0.0021   -0.0041    0.0020 C.3       1 <0>        -0.0797
      3 C3          0.7421   -0.5109    1.2415 C.3       1 <0>        -0.1582
      4 C4         -1.4333   -0.5336    0.0129 C.3       1 <0>        -0.1398
      5 C5         -1.4159   -2.0348   -0.1192 C.2       1 <0>         0.5155
      6 O1         -0.3595   -2.6231   -0.2128 O.2       1 <0>        -0.5210
      7 N1         -2.5744   -2.7235   -0.1333 N.am      1 <0>        -0.6261
      8 C6         -3.8662   -2.0287   -0.0271 C.3       1 <0>         0.0989
      9 C7         -4.5535   -2.4522    1.2765 C.3       1 <0>        -0.0701
     10 C8         -4.4473   -3.9487    1.4229 C.2       1 <0>        -0.1273
     11 C9         -5.2251   -4.8241    2.2765 C.ar      1 <0>        -0.0704
     12 C10        -6.2623   -4.5846    3.1837 C.ar      1 <0>        -0.1040
     13 C11        -6.7839   -5.6890    3.8411 C.ar      1 <0>         0.1089
     14 C12        -6.3028   -6.9725    3.6121 C.ar      1 <0>        -0.1683
     15 C13        -5.2780   -7.2273    2.7185 C.ar      1 <0>        -0.0896
     16 C14        -4.7354   -6.1347    2.0456 C.ar      1 <0>         0.0790
     17 N2         -3.7354   -6.0369    1.1182 N.pl3     1 <0>        -0.5791
     18 H1         -3.2200   -6.7823    0.7722 H         1 <0>         0.4169
     19 C15        -3.5722   -4.7281    0.7511 C.2       1 <0>         0.0342
     20 C16        -2.5793   -4.1908   -0.2615 C.3       1 <0>         0.1910
     21 H2         -1.5849   -4.5842   -0.0506 H         1 <0>         0.1323
     22 C17        -3.0069   -4.5873   -1.6760 C.3       1 <0>        -0.0187
     23 N3         -2.1374   -3.9216   -2.6552 N.4       1 <0>        -0.5079
     24 C18        -2.5480   -4.3023   -4.0133 C.3       1 <0>        -0.0469
     25 O2         -7.7942   -5.5109    4.7339 O.3       1 <0>        -0.3175
     26 C19        -8.2977   -6.6790    5.3852 C.3       1 <0>         0.0247
     27 H3          1.0039    1.9031    0.0027 H         1 <0>         0.0643
     28 H4         -0.5459    1.8868   -0.8726 H         1 <0>         0.0566
     29 H5         -0.5289    1.8773    0.9072 H         1 <0>         0.0594
     30 H6          0.5123   -0.3556   -0.8948 H         1 <0>         0.0768
     31 H7          0.2319   -0.1594    2.1383 H         1 <0>         0.0521
     32 H8          0.7568   -1.6008    1.2356 H         1 <0>         0.0688
     33 H9          1.7647   -0.1336    1.2338 H         1 <0>         0.0593
     34 H10        -1.9156   -0.2570    0.9504 H         1 <0>         0.1063
     35 H11        -1.9862   -0.1019   -0.8214 H         1 <0>         0.1008
     36 H12        -3.7015   -0.9512   -0.0195 H         1 <0>         0.1080
     37 H13        -4.4957   -2.2972   -0.8755 H         1 <0>         0.0811
     38 H14        -4.0641   -1.9674    2.1212 H         1 <0>         0.0864
     39 H15        -5.6039   -2.1623    1.2461 H         1 <0>         0.0973
     40 H16        -6.6384   -3.5884    3.3639 H         1 <0>         0.1416
     41 H17        -6.7440   -7.7988    4.1497 H         1 <0>         0.1355
     42 H18        -4.9142   -8.2301    2.5497 H         1 <0>         0.1363
     43 H19        -2.9233   -5.6680   -1.7914 H         1 <0>         0.1445
     44 H20        -4.0404   -4.2832   -1.8418 H         1 <0>         0.1418
     45 H21        -2.2149   -2.9213   -2.5484 H         1 <0>         0.4263
     46 H22        -1.9028   -3.8084   -4.7398 H         1 <0>         0.1297
     47 H23        -2.4644   -5.3830   -4.1286 H         1 <0>         0.1262
     48 H24        -3.5815   -3.9982   -4.1791 H         1 <0>         0.1253
     49 H25        -8.6852   -7.3726    4.6390 H         1 <0>         0.0568
     50 H26        -7.4940   -7.1583    5.9441 H         1 <0>         0.0570
     51 H27        -9.0981   -6.3969    6.0693 H         1 <0>         0.1043
     52 H28        -1.1808   -4.2032   -2.5017 H         1 <0>         0.4341
@<TRIPOS>BOND
     1    1    2 1
     2    1   27 1
     3    1   28 1
     4    1   29 1
     5    2    3 1
     6    2    4 1
     7    2   30 1
     8    3   31 1
     9    3   32 1
    10    3   33 1
    11    4    5 1
    12    4   34 1
    13    4   35 1
    14    5    6 2
    15    5    7 am
    16    7   20 1
    17    7    8 1
    18    8    9 1
    19    8   36 1
    20    8   37 1
    21    9   10 1
    22    9   38 1
    23    9   39 1
    24   10   19 2
    25   10   11 1
    26   11   16 ar
    27   11   12 ar
    28   12   13 ar
    29   12   40 1
    30   13   14 ar
    31   13   25 1
    32   14   15 ar
    33   14   41 1
    34   15   16 ar
    35   15   42 1
    36   16   17 1
    37   17   18 1
    38   17   19 1
    39   19   20 1
    40   20   21 1
    41   20   22 1
    42   22   23 1
    43   22   43 1
    44   22   44 1
    45   23   24 1
    46   23   45 1
    47   23   52 1
    48   24   46 1
    49   24   47 1
    50   24   48 1
    51   25   26 1
    52   26   49 1
    53   26   50 1
    54   26   51 1
@<TRIPOS>MOLECULE
ZINC44792747
   39    41     0     0     0
SMALL
USER_CHARGES

@<TRIPOS>ATOM
      1 C1         -0.3979    1.2450   -0.0847 C.ar      1 <0>        -0.0845
      2 C2          0.7450    2.0250   -0.1079 C.ar      1 <0>        -0.0894
      3 C3          1.9895    1.4304   -0.1181 C.ar      1 <0>        -0.0654
      4 C4          2.0946    0.0379   -0.1044 C.ar      1 <0>        -0.0016
      5 C5          0.9374   -0.7429   -0.0805 C.ar      1 <0>        -0.0590
      6 C6         -0.3010   -0.1350   -0.0710 C.ar      1 <0>        -0.0879
      7 C7          1.0409   -2.2463   -0.0660 C.3       1 <0>        -0.1236
      8 S1          1.1057   -2.8315    1.6498 S.3       1 <0>         0.1137
      9 C8          1.2239   -4.5830    1.4986 C.cat     1 <0>         0.4643
     10 N1          1.2940   -5.3683    2.6275 N.pl3     1 <0>        -0.5908
     11 C9          0.7834   -4.8947    3.8429 C.ar      1 <0>         0.0910
     12 C10         1.3833   -5.2642    5.0394 C.ar      1 <0>        -0.1001
     13 C11         0.8792   -4.7985    6.2382 C.ar      1 <0>        -0.0863
     14 C12        -0.2257   -3.9602    6.2510 C.ar      1 <0>         0.0754
     15 C13        -0.8266   -3.5863    5.0548 C.ar      1 <0>         0.0854
     16 C14        -0.3186   -4.0515    3.8515 C.ar      1 <0>        -0.1297
     17 O1         -1.9069   -2.7582    5.0470 O.3       1 <0>        -0.2988
     18 C15        -2.6120   -2.6081    6.2839 C.3       1 <0>         0.0183
     19 C16        -1.5828   -2.3796    7.3991 C.3       1 <0>         0.0164
     20 O2         -0.7107   -3.5141    7.4432 O.3       1 <0>        -0.2962
     21 N2          1.2450   -5.1357    0.3173 N.pl3     1 <0>        -0.7415
     22 C17         3.3833   -0.5863   -0.1153 C.1       1 <0>         0.2344
     23 N3          4.4057   -1.0814   -0.1240 N.1       1 <0>        -0.3875
     24 H1         -1.3698    1.7158   -0.0726 H         1 <0>         0.1445
     25 H2          0.6622    3.1018   -0.1185 H         1 <0>         0.1467
     26 H3          2.8806    2.0403   -0.1370 H         1 <0>         0.1451
     27 H4         -1.1970   -0.7378   -0.0524 H         1 <0>         0.1431
     28 H5          0.1711   -2.6752   -0.5636 H         1 <0>         0.1340
     29 H6          1.9467   -2.5531   -0.5890 H         1 <0>         0.1165
     30 H7          2.2441   -5.9163    5.0328 H         1 <0>         0.1491
     31 H8          1.3465   -5.0881    7.1678 H         1 <0>         0.1563
     32 H9         -0.7830   -3.7606    2.9209 H         1 <0>         0.1477
     33 H10        -3.2837   -1.7518    6.2225 H         1 <0>         0.1344
     34 H11        -3.1853   -3.5114    6.4922 H         1 <0>         0.0868
     35 H12        -1.0051   -1.4798    7.1875 H         1 <0>         0.0870
     36 H13        -2.0947   -2.2720    8.3554 H         1 <0>         0.1342
     37 H14         1.2329   -6.1020    0.2337 H         1 <0>         0.4357
     38 H15         1.2727   -4.5804   -0.4776 H         1 <0>         0.4424
     39 H16         1.6969   -6.2494    2.5811 H         1 <0>         0.4398
@<TRIPOS>BOND
     1    1    6 ar
     2    1    2 ar
     3    1   24 1
     4    2    3 ar
     5    2   25 1
     6    3    4 ar
     7    3   26 1
     8    4    5 ar
     9    4   22 1
    10    5    6 ar
    11    5    7 1
    12    6   27 1
    13    7    8 1
    14    7   28 1
    15    7   29 1
    16    8    9 1
    17    9   10 1
    18    9   21 2
    19   10   11 1
    20   10   39 1
    21   11   16 ar
    22   11   12 ar
    23   12   13 ar
    24   12   30 1
    25   13   14 ar
    26   13   31 1
    27   14   20 1
    28   14   15 ar
    29   15   16 ar
    30   15   17 1
    31   16   32 1
    32   17   18 1
    33   18   19 1
    34   18   33 1
    35   18   34 1
    36   19   20 1
    37   19   35 1
    38   19   36 1
    39   21   37 1
    40   21   38 1
    41   22   23 3
@<TRIPOS>MOLECULE
ZINC63700013
   47    49     0     0     0
SMALL
USER_CHARGES

@<TRIPOS>ATOM
      1 C1          1.2647    1.2269   -0.1577 C.3       1 <0>        -0.1164
      2 C2          0.6282   -0.1368   -0.0789 C.ar      1 <0>        -0.0699
      3 C3          0.0386   -0.6898   -1.2012 C.ar      1 <0>        -0.1243
      4 C4         -0.5462   -1.9409   -1.1335 C.ar      1 <0>        -0.0944
      5 C5         -0.5438   -2.6426    0.0562 C.ar      1 <0>        -0.1118
      6 C6          0.0473   -2.0902    1.1853 C.ar      1 <0>         0.1343
      7 C7          0.6391   -0.8351    1.1122 C.ar      1 <0>        -0.1249
      8 N1          0.0512   -2.7970    2.3906 N.am      1 <0>        -0.6329
      9 C8          0.1493   -2.1343    3.5601 C.2       1 <0>         0.5049
     10 O1          0.1335   -0.9207    3.5732 O.2       1 <0>        -0.4934
     11 C9          0.2776   -2.8933    4.8400 C.2       1 <0>         0.5174
     12 O2          0.2935   -4.1068    4.8269 O.2       1 <0>        -0.5053
     13 N2          0.3758   -2.2307    6.0095 N.am      1 <0>        -0.7053
     14 C10         0.5017   -2.9752    7.2649 C.3       1 <0>         0.1240
     15 C11         0.5953   -1.9922    8.4336 C.3       1 <0>        -0.1064
     16 C12         0.7248   -2.7581    9.7250 C.2       1 <0>         0.0688
     17 C13         1.8697   -3.0705   10.3739 C.ar      1 <0>        -0.1651
     18 C14         3.2829   -2.8020   10.0822 C.ar      1 <0>        -0.0138
     19 C15         4.2268   -3.2533   10.9392 C.ar      1 <0>        -0.1492
     20 C16         3.8901   -3.9696   12.0960 C.ar      1 <0>         0.0553
     21 C17         2.6141   -4.2552   12.4313 C.ar      1 <0>        -0.2098
     22 C18         1.5403   -3.8285   11.6021 C.ar      1 <0>         0.3282
     23 N3          0.2424   -3.9790   11.7083 N.pl3     1 <0>        -0.5840
     24 C19        -0.3995   -3.3273   10.5612 C.3       1 <0>         0.0604
     25 C20        -1.1823   -4.0057    0.1293 C.3       1 <0>        -0.1191
     26 H1          2.3128    1.1230   -0.4387 H         1 <0>         0.0730
     27 H2          0.7460    1.8274   -0.9051 H         1 <0>         0.0703
     28 H3          1.1958    1.7168    0.8136 H         1 <0>         0.0680
     29 H4          0.0348   -0.1430   -2.1326 H         1 <0>         0.1275
     30 H5         -1.0056   -2.3699   -2.0117 H         1 <0>         0.1310
     31 H6          1.1032   -0.4044    1.9871 H         1 <0>         0.1439
     32 H7         -0.0169   -3.7646    2.3856 H         1 <0>         0.4234
     33 H8          0.3631   -1.2609    6.0199 H         1 <0>         0.4199
     34 H9         -0.3710   -3.6148    7.3971 H         1 <0>         0.0852
     35 H10         1.4013   -3.5899    7.2342 H         1 <0>         0.0861
     36 H11         1.4680   -1.3527    8.3014 H         1 <0>         0.1192
     37 H12        -0.3044   -1.3776    8.4643 H         1 <0>         0.1224
     38 H13         3.5648   -2.2526    9.1962 H         1 <0>         0.1612
     39 H14         5.2673   -3.0569   10.7265 H         1 <0>         0.1586
     40 H15         4.6841   -4.3073   12.7455 H         1 <0>         0.1616
     41 H16         2.4075   -4.8109   13.3340 H         1 <0>         0.1611
     42 H17        -1.0575   -2.5273   10.9007 H         1 <0>         0.1761
     43 H18        -0.9641   -4.0592    9.9835 H         1 <0>         0.1748
     44 H19        -0.4407   -4.7676   -0.1103 H         1 <0>         0.0750
     45 H20        -1.5643   -4.1744    1.1362 H         1 <0>         0.0614
     46 H21        -2.0039   -4.0609   -0.5849 H         1 <0>         0.0766
     47 H22        -0.2170   -4.4405   12.4272 H         1 <0>         0.4565
@<TRIPOS>BOND
     1    1    2 1
     2    1   26 1
     3    1   27 1
     4    1   28 1
     5    2    7 ar
     6    2    3 ar
     7    3    4 ar
     8    3   29 1
     9    4    5 ar
    10    4   30 1
    11    5    6 ar
    12    5   25 1
    13    6    7 ar
    14    6    8 1
    15    7   31 1
    16    8    9 am
    17    8   32 1
    18    9   10 2
    19    9   11 1
    20   11   12 2
    21   11   13 am
    22   13   14 1
    23   13   33 1
    24   14   15 1
    25   14   34 1
    26   14   35 1
    27   15   16 1
    28   15   36 1
    29   15   37 1
    30   16   24 1
    31   16   17 2
    32   17   22 ar
    33   17   18 ar
    34   18   19 ar
    35   18   38 1
    36   19   20 ar
    37   19   39 1
    38   20   21 ar
    39   20   40 1
    40   21   22 ar
    41   21   41 1
    42   22   23 2
    43   23   24 1
    44   23   47 1
    45   24   42 1
    46   24   43 1
    47   25   44 1
    48   25   45 1
    49   25   46 1
@<TRIPOS>MOLECULE
ZINC15565853
   37    39     0     0     0
SMALL
USER_CHARGES
(1R)-N-[(6-bromo-1,3-benzodioxol-5-yl)methyl]-1-phenyl-ethanamine
@<TRIPOS>ATOM
      1 C1          5.4729    3.6978    0.8666 C.3       1 <0>        -0.1805
      2 C2          4.3443    4.6040    1.3625 C.3       1 <0>         0.0832
      3 H1          4.2711    5.4794    0.7172 H         1 <0>         0.1497
      4 C3          4.6365    5.0435    2.7741 C.ar      1 <0>        -0.1457
      5 C4          4.3665    4.1954    3.8319 C.ar      1 <0>        -0.1241
      6 C5          4.6386    4.5969    5.1264 C.ar      1 <0>        -0.1040
      7 C6          5.1721    5.8498    5.3638 C.ar      1 <0>        -0.0911
      8 C7          5.4372    6.6999    4.3064 C.ar      1 <0>        -0.1051
      9 C8          5.1691    6.2968    3.0116 C.ar      1 <0>        -0.0870
     10 C9          2.4581    3.9330    0.0006 C.3       1 <0>         0.0445
     11 C10         1.1607    3.1664    0.0084 C.ar      1 <0>        -0.1274
     12 C11        -0.0429    3.8470    0.0231 C.ar      1 <0>        -0.0665
     13 C12        -1.2366    3.1447    0.0303 C.ar      1 <0>         0.0604
     14 C13        -1.2214    1.7517    0.0174 C.ar      1 <0>         0.0797
     15 C14        -0.0126    1.0758    0.0080 C.ar      1 <0>        -0.0703
     16 C15         1.1762    1.7836    0.0004 C.ar      1 <0>        -0.0763
     17 Br1         2.8253    0.8584   -0.0203 Br        1 <0>        -0.0109
     18 O1         -2.5099    1.3014    0.0320 O.3       1 <0>        -0.2918
     19 C16        -3.3061    2.4231    0.4576 C.3       1 <0>         0.2102
     20 O2         -2.5348    3.5666    0.0445 O.3       1 <0>        -0.2937
     21 H2          5.2615    3.3800   -0.1544 H         1 <0>         0.0852
     22 H3          6.4150    4.2455    0.8889 H         1 <0>         0.1110
     23 H4          5.5461    2.8224    1.5118 H         1 <0>         0.0824
     24 H5          3.9462    3.2180    3.6467 H         1 <0>         0.1186
     25 H6          4.4319    3.9326    5.9525 H         1 <0>         0.1357
     26 H7          5.3822    6.1645    6.3753 H         1 <0>         0.1362
     27 H8          5.8540    7.6788    4.4919 H         1 <0>         0.1376
     28 H9          5.3762    6.9609    2.1855 H         1 <0>         0.1349
     29 H10         3.1337    3.4964   -0.7349 H         1 <0>         0.1468
     30 H11         2.2635    4.9740   -0.2576 H         1 <0>         0.1524
     31 H12        -0.0521    4.9269    0.0287 H         1 <0>         0.1588
     32 H13         0.0021   -0.0041    0.0020 H         1 <0>         0.1607
     33 H14        -3.4301    2.4157    1.5405 H         1 <0>         0.1010
     34 H15        -4.2759    2.4151   -0.0400 H         1 <0>         0.1488
     35 N1          3.0703    3.8607    1.3408 N.4       1 <0>        -0.5207
     36 H16         2.4277    4.2698    2.0292 H         1 <0>         0.4345
     37 H17         3.2474    2.8780    1.5797 H         1 <0>         0.4227
@<TRIPOS>BOND
     1    1    2 1
     2    1   21 1
     3    1   22 1
     4    1   23 1
     5    2    3 1
     6    2    4 1
     7    2   35 1
     8    4    9 ar
     9    4    5 ar
    10    5    6 ar
    11    5   24 1
    12    6    7 ar
    13    6   25 1
    14    7    8 ar
    15    7   26 1
    16    8    9 ar
    17    8   27 1
    18    9   28 1
    19   10   11 1
    20   10   29 1
    21   10   30 1
    22   10   35 1
    23   11   16 ar
    24   11   12 ar
    25   12   13 ar
    26   12   31 1
    27   13   20 1
    28   13   14 ar
    29   14   15 ar
    30   14   18 1
    31   15   16 ar
    32   15   32 1
    33   16   17 1
    34   18   19 1
    35   19   20 1
    36   19   33 1
    37   19   34 1
    38   35   36 1
    39   35   37 1
@<TRIPOS>MOLECULE
ZINC35557375
   45    46     0     0     0
SMALL
USER_CHARGES

@<TRIPOS>ATOM
      1 C1          2.9341    0.6528   -1.9410 C.3       1 <0>        -0.1802
      2 C2          1.6246    0.6838   -1.1503 C.3       1 <0>        -0.1393
      3 C3          0.7652   -0.5207   -1.5394 C.3       1 <0>        -0.1035
      4 H1          1.3928   -1.4097   -1.6021 H         1 <0>         0.0991
      5 C4         -0.3197   -0.7360   -0.4822 C.3       1 <0>        -0.1620
      6 C5          0.1098   -0.2622   -2.8975 C.3       1 <0>         0.0764
      7 H2         -0.8859   -0.7055   -2.9106 H         1 <0>         0.1542
      8 C6          0.0016    1.2231   -3.1284 C.ar      1 <0>        -0.1143
      9 C7          1.0244    1.8975   -3.7718 C.ar      1 <0>        -0.1214
     10 C8          0.9212    3.2616   -3.9825 C.ar      1 <0>         0.0925
     11 C9         -0.2038    3.9494   -3.5493 C.ar      1 <0>         0.1067
     12 C10        -1.2256    3.2728   -2.9058 C.ar      1 <0>        -0.0941
     13 C11        -1.1223    1.9070   -2.7017 C.ar      1 <0>        -0.0090
     14 Cl1        -2.4042    1.0520   -1.9021 Cl        1 <0>        -0.0283
     15 O1         -0.2957    5.2941   -3.7631 O.3       1 <0>        -0.3108
     16 C12         0.6163    6.1082   -3.0230 C.3       1 <0>         0.0589
     17 C13         1.9571    6.1998   -3.7344 C.3       1 <0>        -0.1935
     18 C14         2.6645    4.8560   -3.8115 C.3       1 <0>         0.0593
     19 O2          1.9225    3.9381   -4.6171 O.3       1 <0>        -0.3137
     20 N1          0.9280   -0.8644   -3.9586 N.4       1 <0>        -0.5113
     21 C15         0.9121   -2.3267   -3.8189 C.3       1 <0>        -0.0172
     22 C16         1.8079   -2.9511   -4.8906 C.3       1 <0>        -0.1893
     23 H3          3.0883   -0.3460   -2.3494 H         1 <0>         0.0492
     24 H4          2.8836    1.3748   -2.7560 H         1 <0>         0.0650
     25 H5          3.7633    0.9074   -1.2809 H         1 <0>         0.0778
     26 H6          1.8435    0.6444   -0.0832 H         1 <0>         0.0868
     27 H7          1.0851    1.6034   -1.3768 H         1 <0>         0.0827
     28 H8         -0.8826    0.1874   -0.3461 H         1 <0>         0.0766
     29 H9         -0.9938   -1.5276   -0.8094 H         1 <0>         0.0672
     30 H10         0.1445   -1.0211    0.4619 H         1 <0>         0.0792
     31 H11         1.8998    1.3617   -4.1079 H         1 <0>         0.1433
     32 H12        -2.1013    3.8071   -2.5680 H         1 <0>         0.1610
     33 H13         0.1979    7.1090   -2.9157 H         1 <0>         0.1180
     34 H14         0.7637    5.6739   -2.0342 H         1 <0>         0.0633
     35 H15         1.7954    6.5723   -4.7460 H         1 <0>         0.0918
     36 H16         2.5937    6.9038   -3.1985 H         1 <0>         0.1026
     37 H17         3.6542    4.9960   -4.2463 H         1 <0>         0.1161
     38 H18         2.7695    4.4476   -2.8064 H         1 <0>         0.0622
     39 H19         0.5520   -0.6085   -4.8593 H         1 <0>         0.4313
     40 H20         1.2819   -2.6013   -2.8310 H         1 <0>         0.1349
     41 H21        -0.1077   -2.6921   -3.9396 H         1 <0>         0.1364
     42 H22         2.8276   -2.5857   -4.7698 H         1 <0>         0.0806
     43 H23         1.7961   -4.0361   -4.7869 H         1 <0>         0.1105
     44 H24         1.4381   -2.6765   -5.8784 H         1 <0>         0.0830
     45 H25         1.8767   -0.5296   -3.8827 H         1 <0>         0.4214
@<TRIPOS>BOND
     1    1    2 1
     2    1   23 1
     3    1   24 1
     4    1   25 1
     5    2    3 1
     6    2   26 1
     7    2   27 1
     8    3    4 1
     9    3    5 1
    10    3    6 1
    11    5   28 1
    12    5   29 1
    13    5   30 1
    14    6    7 1
    15    6    8 1
    16    6   20 1
    17    8   13 ar
    18    8    9 ar
    19    9   10 ar
    20    9   31 1
    21   10   19 1
    22   10   11 ar
    23   11   12 ar
    24   11   15 1
    25   12   13 ar
    26   12   32 1
    27   13   14 1
    28   15   16 1
    29   16   17 1
    30   16   33 1
    31   16   34 1
    32   17   18 1
    33   17   35 1
    34   17   36 1
    35   18   19 1
    36   18   37 1
    37   18   38 1
    38   20   21 1
    39   20   39 1
    40   20   45 1
    41   21   22 1
    42   21   40 1
    43   21   41 1
    44   22   42 1
    45   22   43 1
    46   22   44 1
@<TRIPOS>MOLECULE
ZINC38788193
   40    42     0     0     0
SMALL
USER_CHARGES

@<TRIPOS>ATOM
      1 C1         -0.0184    1.5028    0.0103 C.3       1 <0>        -0.1601
      2 C2          0.0021   -0.0041    0.0020 C.ar      1 <0>         0.1368
      3 C3          0.0052   -0.6668   -1.2256 C.ar      1 <0>        -0.1690
      4 C4          0.0233   -2.0229   -1.2973 C.ar      1 <0>         0.0228
      5 C5          0.0403   -2.7949   -0.0543 C.ar      1 <0>        -0.1855
      6 C6          0.0593   -4.1579   -0.0775 C.2       1 <0>         0.1407
      7 C7          0.0764   -4.8756    1.2579 C.3       1 <0>        -0.1520
      8 H1          0.9653   -5.5057    1.2875 H         1 <0>         0.1824
      9 C8          0.0710   -4.0220    2.5060 C.2       1 <0>         0.5194
     10 O1          0.0846   -4.5456    3.6039 O.2       1 <0>        -0.4227
     11 N1          0.0521   -2.7040    2.3993 N.am      1 <0>        -0.5968
     12 C9          0.0370   -2.0688    1.2276 C.ar      1 <0>         0.3589
     13 C10         0.0223   -0.6624    1.1903 C.ar      1 <0>        -0.2390
     14 C11        -1.1461   -5.7939    1.3130 C.3       1 <0>         0.1431
     15 N2         -1.1009   -6.5942    2.5392 N.pl3     1 <0>        -0.7521
     16 C12        -2.1177   -7.5122    2.8120 C.ar      1 <0>         0.2112
     17 C13        -3.1697   -7.6715    1.9186 C.ar      1 <0>        -0.1885
     18 C14        -4.1734   -8.5801    2.1904 C.ar      1 <0>        -0.0613
     19 C15        -4.1331   -9.3311    3.3509 C.ar      1 <0>        -0.1193
     20 C16        -3.0869   -9.1753    4.2433 C.ar      1 <0>         0.0100
     21 C17        -2.0762   -8.2715    3.9739 C.ar      1 <0>        -0.1728
     22 Cl1        -3.0407  -10.1199    5.6990 Cl        1 <0>        -0.0563
     23 C18        -5.2309  -10.3209    3.6445 C.3       1 <0>        -0.1185
     24 H2          1.0042    1.8801    0.0026 H         1 <0>         0.1158
     25 H3         -0.5455    1.8639   -0.8728 H         1 <0>         0.1009
     26 H4         -0.5286    1.8543    0.9071 H         1 <0>         0.0971
     27 H5         -0.0074   -0.0893   -2.1382 H         1 <0>         0.1666
     28 H6          0.0248   -2.5227   -2.2547 H         1 <0>         0.1778
     29 H7          0.0616   -4.7041   -1.0092 H         1 <0>         0.2039
     30 H8          0.0230   -0.1018    2.1135 H         1 <0>         0.1699
     31 H9         -2.0541   -5.1909    1.3060 H         1 <0>         0.0767
     32 H10        -1.1428   -6.4557    0.4469 H         1 <0>         0.0992
     33 H11        -0.3648   -6.4867    3.1617 H         1 <0>         0.4123
     34 H12        -3.2026   -7.0850    1.0123 H         1 <0>         0.1234
     35 H13        -4.9913   -8.7040    1.4960 H         1 <0>         0.1345
     36 H14        -1.2574   -8.1532    4.6683 H         1 <0>         0.1328
     37 H15        -4.9674  -11.2912    3.2235 H         1 <0>         0.0746
     38 H16        -5.3563  -10.4149    4.7232 H         1 <0>         0.0729
     39 H17        -6.1628   -9.9726    3.1993 H         1 <0>         0.0703
     40 H18         0.0489   -2.1745    3.2120 H         1 <0>         0.4398
@<TRIPOS>BOND
     1    1    2 1
     2    1   24 1
     3    1   25 1
     4    1   26 1
     5    2   13 ar
     6    2    3 ar
     7    3    4 ar
     8    3   27 1
     9    4    5 ar
    10    4   28 1
    11    5   12 ar
    12    5    6 2
    13    6    7 1
    14    6   29 1
    15    7    8 1
    16    7    9 1
    17    7   14 1
    18    9   10 2
    19    9   11 am
    20   11   12 2
    21   11   40 1
    22   12   13 ar
    23   13   30 1
    24   14   15 1
    25   14   31 1
    26   14   32 1
    27   15   16 1
    28   15   33 1
    29   16   21 ar
    30   16   17 ar
    31   17   18 ar
    32   17   34 1
    33   18   19 ar
    34   18   35 1
    35   19   20 ar
    36   19   23 1
    37   20   21 ar
    38   20   22 1
    39   21   36 1
    40   23   37 1
    41   23   38 1
    42   23   39 1
@<TRIPOS>MOLECULE
ZINC49956310
   40    42     0     0     0
SMALL
USER_CHARGES

@<TRIPOS>ATOM
      1 C1         -0.4191    1.1182    0.5725 C.3       1 <0>        -0.1294
      2 C2         -0.3383   -0.3790    0.4218 C.ar      1 <0>        -0.0260
      3 C3         -0.1593   -0.9383   -0.8289 C.ar      1 <0>        -0.1307
      4 C4         -0.0850   -2.3164   -0.9671 C.ar      1 <0>         0.1176
      5 C5         -0.1906   -3.1307    0.1513 C.ar      1 <0>        -0.2054
      6 C6         -0.3695   -2.5678    1.3999 C.ar      1 <0>        -0.0602
      7 C7         -0.4377   -1.1924    1.5364 C.ar      1 <0>        -0.0633
      8 Cl1        -0.6555   -0.4870    3.1076 Cl        1 <0>        -0.0469
      9 O1          0.0906   -2.8685   -2.1967 O.3       1 <0>        -0.3052
     10 C8          0.2243   -4.2900   -2.2565 C.3       1 <0>         0.0233
     11 H1          0.7735   -4.6443   -1.3841 H         1 <0>         0.1208
     12 C9         -1.1652   -4.9390   -2.2912 C.3       1 <0>         0.0422
     13 O2         -1.8968   -4.3791   -3.3826 O.3       1 <0>        -0.2884
     14 C10        -1.2882   -4.3304   -4.5961 C.ar      1 <0>         0.1739
     15 C11        -2.0763   -4.1398   -5.7269 C.ar      1 <0>        -0.1369
     16 C12        -1.4946   -4.0800   -6.9766 C.ar      1 <0>        -0.0510
     17 C13        -0.1240   -4.2094   -7.1072 C.ar      1 <0>        -0.1350
     18 C14         0.6611   -4.4006   -5.9872 C.ar      1 <0>        -0.0883
     19 C15         0.0825   -4.4641   -4.7304 C.ar      1 <0>        -0.2272
     20 C16         0.9723   -4.6846   -3.5323 C.3       1 <0>         0.1001
     21 H2          1.2528   -5.7365   -3.4777 H         1 <0>         0.1651
     22 N1          2.1830   -3.8629   -3.6631 N.4       1 <0>        -0.5040
     23 C17         3.1026   -4.1666   -2.5585 C.3       1 <0>        -0.0532
     24 H3          0.5809    1.5219    0.7310 H         1 <0>         0.0854
     25 H4         -0.8469    1.5518   -0.3314 H         1 <0>         0.0786
     26 H5         -1.0497    1.3639    1.4270 H         1 <0>         0.0830
     27 H6         -0.0777   -0.3029   -1.6983 H         1 <0>         0.1429
     28 H7         -0.1334   -4.2040    0.0456 H         1 <0>         0.1356
     29 H8         -0.4518   -3.2014    2.2707 H         1 <0>         0.1440
     30 H9         -1.0643   -6.0154   -2.4307 H         1 <0>         0.0970
     31 H10        -1.6883   -4.7369   -1.3565 H         1 <0>         0.1339
     32 H11        -3.1468   -4.0388   -5.6261 H         1 <0>         0.1463
     33 H12        -2.1093   -3.9319   -7.8522 H         1 <0>         0.1452
     34 H13         0.3323   -4.1612   -8.0849 H         1 <0>         0.1399
     35 H14         1.7313   -4.5012   -6.0919 H         1 <0>         0.1239
     36 H15         2.6344   -4.0666   -4.5422 H         1 <0>         0.4310
     37 H16         4.0417   -3.6348   -2.7110 H         1 <0>         0.1348
     38 H17         2.6551   -3.8509   -1.6160 H         1 <0>         0.1204
     39 H18         3.2931   -5.2394   -2.5289 H         1 <0>         0.1285
     40 H19         1.9315   -2.8862   -3.6325 H         1 <0>         0.4379
@<TRIPOS>BOND
     1    1    2 1
     2    1   24 1
     3    1   25 1
     4    1   26 1
     5    2    7 ar
     6    2    3 ar
     7    3    4 ar
     8    3   27 1
     9    4    5 ar
    10    4    9 1
    11    5    6 ar
    12    5   28 1
    13    6    7 ar
    14    6   29 1
    15    7    8 1
    16    9   10 1
    17   10   11 1
    18   10   20 1
    19   10   12 1
    20   12   13 1
    21   12   30 1
    22   12   31 1
    23   13   14 1
    24   14   19 ar
    25   14   15 ar
    26   15   16 ar
    27   15   32 1
    28   16   17 ar
    29   16   33 1
    30   17   18 ar
    31   17   34 1
    32   18   19 ar
    33   18   35 1
    34   19   20 1
    35   20   21 1
    36   20   22 1
    37   22   23 1
    38   22   36 1
    39   22   40 1
    40   23   37 1
    41   23   38 1
    42   23   39 1
@<TRIPOS>MOLECULE
ZINC57655781
   49    51     0     0     0
SMALL
USER_CHARGES

@<TRIPOS>ATOM
      1 C1         -0.0184    1.5028    0.0103 C.3       1 <0>        -0.1269
      2 C2          0.0021   -0.0041    0.0020 C.ar      1 <0>        -0.0652
      3 C3          0.0057   -0.6888   -1.1991 C.ar      1 <0>        -0.0949
      4 C4          0.0245   -2.0707   -1.2067 C.ar      1 <0>        -0.0968
      5 C5          0.0400   -2.7685   -0.0132 C.ar      1 <0>        -0.1233
      6 C6          0.0373   -2.0840    1.1875 C.ar      1 <0>        -0.1334
      7 C7          0.0229   -0.7015    1.1951 C.ar      1 <0>        -0.0973
      8 C8          0.0538   -2.8445    2.4885 C.3       1 <0>         0.1381
      9 H1         -0.3025   -2.1956    3.2885 H         1 <0>         0.1526
     10 C9          1.4638   -3.2787    2.7920 C.ar      1 <0>        -0.1231
     11 C10         2.4977   -2.3866    2.5459 C.ar      1 <0>        -0.1439
     12 C11         3.8075   -2.7430    2.8121 C.ar      1 <0>         0.1156
     13 C12         4.0882   -4.0039    3.3307 C.ar      1 <0>         0.1341
     14 C13         3.0541   -4.8903    3.5740 C.ar      1 <0>        -0.1685
     15 C14         1.7431   -4.5283    3.3037 C.ar      1 <0>        -0.0790
     16 C15         0.6483   -5.5284    3.5761 C.3       1 <0>        -0.0915
     17 C16        -0.7065   -4.8197    3.5992 C.3       1 <0>         0.0630
     18 N1         -0.8312   -4.0077    2.3794 N.4       1 <0>        -0.4988
     19 C17        -1.8290   -5.8585    3.6421 C.3       1 <0>        -0.1754
     20 C18        -0.7919   -3.9146    4.8299 C.3       1 <0>        -0.1797
     21 O1          5.3727   -4.3629    3.5965 O.3       1 <0>        -0.2959
     22 C19         5.5836   -5.6728    4.1273 C.3       1 <0>         0.0211
     23 O2          4.8169   -1.8651    2.5677 O.3       1 <0>        -0.2958
     24 C20         4.4531   -0.5901    2.0349 C.3       1 <0>         0.0226
     25 H2          1.0042    1.8801    0.0026 H         1 <0>         0.0804
     26 H3         -0.5455    1.8639   -0.8728 H         1 <0>         0.0766
     27 H4         -0.5286    1.8543    0.9071 H         1 <0>         0.0737
     28 H5         -0.0064   -0.1437   -2.1314 H         1 <0>         0.1358
     29 H6          0.0266   -2.6056   -2.1449 H         1 <0>         0.1360
     30 H7          0.0540   -3.8484   -0.0191 H         1 <0>         0.1181
     31 H8          0.0246   -0.1666    2.1333 H         1 <0>         0.1335
     32 H9          2.2786   -1.4085    2.1439 H         1 <0>         0.1456
     33 H10         3.2691   -5.8692    3.9763 H         1 <0>         0.1472
     34 H11         0.6472   -6.2868    2.7932 H         1 <0>         0.1041
     35 H12         0.8245   -6.0048    4.5405 H         1 <0>         0.1227
     36 H13        -1.7858   -3.6973    2.2772 H         1 <0>         0.4309
     37 H14        -1.7246   -6.4693    4.5388 H         1 <0>         0.1094
     38 H15        -2.7934   -5.3509    3.6585 H         1 <0>         0.0860
     39 H16        -1.7686   -6.4954    2.7596 H         1 <0>         0.0833
     40 H17         0.0047   -3.1717    4.7905 H         1 <0>         0.0864
     41 H18        -1.7584   -3.4108    4.8439 H         1 <0>         0.0837
     42 H19        -0.6829   -4.5167    5.7319 H         1 <0>         0.1066
     43 H20         6.6493   -5.8303    4.2932 H         1 <0>         0.1109
     44 H21         5.0502   -5.7719    5.0727 H         1 <0>         0.0605
     45 H22         5.2122   -6.4152    3.4210 H         1 <0>         0.0600
     46 H23         3.9460   -0.7266    1.0798 H         1 <0>         0.0573
     47 H24         3.7856   -0.0824    2.7313 H         1 <0>         0.0581
     48 H25         5.3500    0.0114    1.8874 H         1 <0>         0.1105
     49 H26        -0.5663   -4.5595    1.5773 H         1 <0>         0.4251
@<TRIPOS>BOND
     1    1    2 1
     2    1   25 1
     3    1   26 1
     4    1   27 1
     5    2    7 ar
     6    2    3 ar
     7    3    4 ar
     8    3   28 1
     9    4    5 ar
    10    4   29 1
    11    5    6 ar
    12    5   30 1
    13    6    7 ar
    14    6    8 1
    15    7   31 1
    16    8    9 1
    17    8   18 1
    18    8   10 1
    19   10   15 ar
    20   10   11 ar
    21   11   12 ar
    22   11   32 1
    23   12   13 ar
    24   12   23 1
    25   13   14 ar
    26   13   21 1
    27   14   15 ar
    28   14   33 1
    29   15   16 1
    30   16   17 1
    31   16   34 1
    32   16   35 1
    33   17   18 1
    34   17   19 1
    35   17   20 1
    36   18   36 1
    37   18   49 1
    38   19   37 1
    39   19   38 1
    40   19   39 1
    41   20   40 1
    42   20   41 1
    43   20   42 1
    44   21   22 1
    45   22   43 1
    46   22   44 1
    47   22   45 1
    48   23   24 1
    49   24   46 1
    50   24   47 1
    51   24   48 1
@<TRIPOS>MOLECULE
ZINC00086623
   45    48     0     0     0
SMALL
USER_CHARGES
7-[(6-methyl-2-pyridyl)amino-(4-pyridyl)methyl]quinolin-8-ol
@<TRIPOS>ATOM
      1 C1          0.1717    1.4418   -0.0749 C.3       1 <0>        -0.1486
      2 C2         -0.5674    1.8805    1.1630 C.ar      1 <0>         0.1929
      3 C3         -1.9172    2.1605    1.0873 C.ar      1 <0>        -0.1733
      4 C4         -2.5941    2.5597    2.2319 C.ar      1 <0>         0.0538
      5 C5         -1.8835    2.6730    3.4134 C.ar      1 <0>        -0.2076
      6 C6         -0.5238    2.3798    3.4158 C.ar      1 <0>         0.4607
      7 N1          0.2023    2.4890    4.5961 N.pl3     1 <0>        -0.6990
      8 C7         -0.4647    2.9118    5.8301 C.3       1 <0>         0.2447
      9 H1         -1.4781    2.5108    5.8510 H         1 <0>         0.1214
     10 C8         -0.5190    4.4169    5.8815 C.ar      1 <0>        -0.0728
     11 C9          0.5618    5.1806    5.4679 C.ar      1 <0>        -0.1594
     12 C10         0.4741    6.5587    5.5255 C.ar      1 <0>         0.1065
     13 N2         -0.6168    7.1468    5.9761 N.ar      1 <0>        -0.4708
     14 C11        -1.6618    6.4524    6.3820 C.ar      1 <0>         0.1112
     15 C12        -1.6487    5.0709    6.3490 C.ar      1 <0>        -0.1466
     16 C13         0.3043    2.3959    7.0190 C.ar      1 <0>        -0.1276
     17 C14         1.6735    2.1700    6.9043 C.ar      1 <0>        -0.1123
     18 C15         2.3971    1.7047    7.9598 C.ar      1 <0>        -0.0804
     19 C16         1.7574    1.4476    9.1835 C.ar      1 <0>        -0.0879
     20 C17         2.4721    0.9666   10.2969 C.ar      1 <0>        -0.0588
     21 C18         1.7844    0.7395   11.4549 C.ar      1 <0>        -0.1570
     22 C19         0.4138    0.9845   11.5087 C.ar      1 <0>         0.1422
     23 N3         -0.2479    1.4325   10.4696 N.ar      1 <0>        -0.4601
     24 C20         0.3651    1.6751    9.3076 C.ar      1 <0>         0.1054
     25 C21        -0.3512    2.1625    8.1941 C.ar      1 <0>         0.1717
     26 O1         -1.6864    2.3935    8.2888 O.3       1 <0>        -0.4743
     27 H2          0.1384    0.3551   -0.1520 H         1 <0>         0.1130
     28 H3          1.2094    1.7701   -0.0140 H         1 <0>         0.0933
     29 H4         -0.2979    1.8830   -0.9540 H         1 <0>         0.1158
     30 H5         -2.4420    2.0665    0.1481 H         1 <0>         0.1831
     31 H6         -3.6508    2.7806    2.1997 H         1 <0>         0.1761
     32 H7         -2.3777    2.9852    4.3216 H         1 <0>         0.1783
     33 H8          1.1507    2.2853    4.6028 H         1 <0>         0.4176
     34 H9          1.4597    4.7047    5.1022 H         1 <0>         0.1264
     35 H10         1.3100    7.1607    5.2014 H         1 <0>         0.1599
     36 H11        -2.5379    6.9694    6.7447 H         1 <0>         0.1649
     37 H12        -2.5076    4.5077    6.6828 H         1 <0>         0.1453
     38 H13         2.1685    2.3662    5.9647 H         1 <0>         0.1218
     39 H14         3.4586    1.5343    7.8565 H         1 <0>         0.1413
     40 H15         3.5345    0.7819   10.2370 H         1 <0>         0.1477
     41 H16         2.3023    0.3701   12.3276 H         1 <0>         0.1483
     42 H17        -0.1173    0.8009   12.4310 H         1 <0>         0.1695
     43 H18        -2.2348    1.6303    8.0611 H         1 <0>         0.3964
     44 N4          0.1623    1.9809    2.3059 N.ar      1 <0>        -0.5369
     45 H19         1.1668    1.7699    2.3320 H         1 <0>         0.4641
@<TRIPOS>BOND
     1    1    2 1
     2    1   27 1
     3    1   28 1
     4    1   29 1
     5    2    3 ar
     6    2   44 ar
     7    3    4 ar
     8    3   30 1
     9    4    5 ar
    10    4   31 1
    11    5    6 ar
    12    5   32 1
    13    6    7 1
    14    6   44 ar
    15    7    8 1
    16    7   33 1
    17    8    9 1
    18    8   10 1
    19    8   16 1
    20   10   15 ar
    21   10   11 ar
    22   11   12 ar
    23   11   34 1
    24   12   13 ar
    25   12   35 1
    26   13   14 ar
    27   14   15 ar
    28   14   36 1
    29   15   37 1
    30   16   25 ar
    31   16   17 ar
    32   17   18 ar
    33   17   38 1
    34   18   19 ar
    35   18   39 1
    36   19   24 ar
    37   19   20 ar
    38   20   21 ar
    39   20   40 1
    40   21   22 ar
    41   21   41 1
    42   22   23 ar
    43   22   42 1
    44   23   24 ar
    45   24   25 ar
    46   25   26 1
    47   26   43 1
    48   44   45 1
@<TRIPOS>MOLECULE
ZINC29185441
   50    52     0     0     0
SMALL
USER_CHARGES
(4E)-4-[[3-[(2S)-2-methyl-1-piperidyl]propylamino]methylene]isoquinoline-1,3-dione
@<TRIPOS>ATOM
      1 C1         -2.3430    0.0621   -0.7307 C.3       1 <0>        -0.1864
      2 C2         -1.3075   -0.5744    0.1986 C.3       1 <0>         0.0362
      3 H1         -1.5380   -0.3451    1.2494 H         1 <0>         0.1305
      4 C3         -1.2815   -2.0877   -0.0275 C.3       1 <0>        -0.1418
      5 C4         -0.2300   -2.7179    0.8900 C.3       1 <0>        -0.1413
      6 C5          1.1328   -2.0809    0.6043 C.3       1 <0>        -0.1464
      7 C6          1.0368   -0.5677    0.8121 C.3       1 <0>        -0.0129
      8 N1          0.0184   -0.0124   -0.0885 N.4       1 <0>        -0.3978
      9 C7         -0.0046    1.4546   -0.0161 C.3       1 <0>        -0.0050
     10 C8          1.4273    1.9906   -0.0717 C.3       1 <0>        -0.1681
     11 C9          1.4033    3.5185    0.0036 C.3       1 <0>         0.1040
     12 N2          2.7745    4.0317   -0.0496 N.pl3     1 <0>        -0.7167
     13 C10         3.0013    5.3703    0.0022 C.2       1 <0>         0.2944
     14 C11         4.2900    5.8472    0.0965 C.2       1 <0>        -0.3339
     15 C12         5.3566    5.0387    0.7228 C.ar      1 <0>         0.0511
     16 C13         5.1072    3.7728    1.2404 C.ar      1 <0>        -0.1890
     17 C14         6.1372    3.0573    1.8159 C.ar      1 <0>        -0.0655
     18 C15         7.4160    3.5912    1.8812 C.ar      1 <0>        -0.1509
     19 C16         7.6825    4.8444    1.3735 C.ar      1 <0>        -0.0237
     20 C17         6.6553    5.5847    0.7874 C.ar      1 <0>        -0.1652
     21 C18         6.8966    6.9239    0.2349 C.2       1 <0>         0.5713
     22 O1          8.0145    7.4002    0.2881 O.2       1 <0>        -0.5034
     23 N3          5.9034    7.6316   -0.3277 N.am      1 <0>        -0.6803
     24 C19         4.6459    7.1709   -0.4276 C.2       1 <0>         0.5862
     25 O2          3.7917    7.8602   -0.9541 O.2       1 <0>        -0.5288
     26 H2         -3.3363   -0.3588   -0.5158 H         1 <0>         0.1067
     27 H3         -2.0746   -0.1471   -1.7767 H         1 <0>         0.0828
     28 H4         -2.3625    1.1498   -0.5677 H         1 <0>         0.0819
     29 H5         -2.2711   -2.5097    0.2019 H         1 <0>         0.1126
     30 H6         -1.0278   -2.2973   -1.0771 H         1 <0>         0.0899
     31 H7         -0.5071   -2.5424    1.9400 H         1 <0>         0.0812
     32 H8         -0.1791   -3.8002    0.7002 H         1 <0>         0.0959
     33 H9          1.8843   -2.4999    1.2896 H         1 <0>         0.1128
     34 H10         1.4258   -2.2922   -0.4347 H         1 <0>         0.0888
     35 H11         0.7571   -0.3579    1.8550 H         1 <0>         0.1266
     36 H12         2.0105   -0.1050    0.5935 H         1 <0>         0.1334
     37 H13        -0.5790    1.8546   -0.8647 H         1 <0>         0.1384
     38 H14        -0.4770    1.7678    0.9266 H         1 <0>         0.1314
     39 H15         2.0017    1.5907    0.7769 H         1 <0>         0.0990
     40 H16         1.8998    1.6773   -1.0144 H         1 <0>         0.0995
     41 H17         0.8289    3.9184   -0.8450 H         1 <0>         0.0876
     42 H18         0.9309    3.8318    0.9463 H         1 <0>         0.0855
     43 H19         3.6204    3.3333   -0.1315 H         1 <0>         0.4392
     44 H20         2.1558    6.0732   -0.0312 H         1 <0>         0.1690
     45 H21         4.1136    3.3523    1.1926 H         1 <0>         0.1333
     46 H22         5.9462    2.0737    2.2188 H         1 <0>         0.1272
     47 H23         8.2115    3.0183    2.3346 H         1 <0>         0.1337
     48 H24         8.6813    5.2516    1.4294 H         1 <0>         0.1420
     49 H25         6.1034    8.6350   -0.7317 H         1 <0>         0.4466
     50 H26         0.2879   -0.2976   -1.1161 H         1 <0>         0.4385
@<TRIPOS>BOND
     1    1    2 1
     2    1   26 1
     3    1   27 1
     4    1   28 1
     5    2    3 1
     6    2    8 1
     7    2    4 1
     8    4    5 1
     9    4   29 1
    10    4   30 1
    11    5    6 1
    12    5   31 1
    13    5   32 1
    14    6    7 1
    15    6   33 1
    16    6   34 1
    17    7    8 1
    18    7   35 1
    19    7   36 1
    20    8    9 1
    21    8   50 1
    22    9   10 1
    23    9   37 1
    24    9   38 1
    25   10   11 1
    26   10   39 1
    27   10   40 1
    28   11   12 1
    29   11   41 1
    30   11   42 1
    31   12   13 1
    32   12   43 1
    33   13   14 2
    34   13   44 1
    35   14   24 1
    36   14   15 1
    37   15   20 ar
    38   15   16 ar
    39   16   17 ar
    40   16   45 1
    41   17   18 ar
    42   17   46 1
    43   18   19 ar
    44   18   47 1
    45   19   20 ar
    46   19   48 1
    47   20   21 1
    48   21   22 2
    49   21   23 am
    50   23   24 am
    51   23   49 1
    52   24   25 2
@<TRIPOS>MOLECULE
ZINC40096104
   43    45     0     0     0
SMALL
USER_CHARGES

@<TRIPOS>ATOM
      1 C1         -0.1251    1.5052    0.2175 C.3       1 <0>        -0.1834
      2 C2          0.0109   -0.0040    0.0062 C.3       1 <0>         0.0166
      3 H1         -0.9799   -0.4573   -0.0249 H         1 <0>         0.1510
      4 C3          0.7354   -0.2708   -1.3148 C.3       1 <0>         0.1144
      5 N1          0.9611   -1.7104   -1.4658 N.am      1 <0>        -0.7601
      6 C4          1.5032   -2.1920   -2.6019 C.2       1 <0>         0.7039
      7 O1          1.8050   -1.4316   -3.5014 O.2       1 <0>        -0.5051
      8 N2          1.7109   -3.5164   -2.7409 N.am      1 <0>        -0.6264
      9 C5          2.2700   -4.0130   -3.9127 C.2       1 <0>         0.2655
     10 N3          2.6601   -3.3477   -4.9783 N.2       1 <0>        -0.5148
     11 C6          3.1769   -3.9717   -6.0210 C.2       1 <0>         0.0583
     12 C7          3.2850   -5.3204   -5.9404 C.2       1 <0>        -0.2284
     13 S1          2.6190   -5.6109   -4.3095 S.3       1 <0>         0.1269
     14 N4          0.7812   -0.5860    1.1134 N.4       1 <0>        -0.3831
     15 C8          0.0986   -0.3096    2.3866 C.3       1 <0>        -0.0059
     16 C9          0.7351   -1.1708    3.4783 C.3       1 <0>        -0.1049
     17 C10         2.2327   -1.0012    3.4532 C.ar      1 <0>        -0.0932
     18 C11         2.9666   -1.4098    4.5559 C.ar      1 <0>        -0.1041
     19 C12         4.3404   -1.2732    4.5678 C.ar      1 <0>        -0.0917
     20 C13         4.9867   -0.7265    3.4745 C.ar      1 <0>        -0.1035
     21 C14         4.2563   -0.3182    2.3768 C.ar      1 <0>        -0.0927
     22 C15         2.8759   -0.4533    2.3638 C.ar      1 <0>        -0.1318
     23 C16         2.1184    0.0132    1.1488 C.3       1 <0>         0.0347
     24 H2          0.8662    1.9543    0.2785 H         1 <0>         0.0872
     25 H3         -0.6707    1.9415   -0.6192 H         1 <0>         0.1138
     26 H4         -0.6676    1.6950    1.1436 H         1 <0>         0.0921
     27 H5          0.1257    0.0903   -2.1430 H         1 <0>         0.1208
     28 H6          1.6934    0.2492   -1.3152 H         1 <0>         0.0969
     29 H7          0.7204   -2.3170   -0.7482 H         1 <0>         0.3894
     30 H8          1.4701   -4.1230   -2.0233 H         1 <0>         0.4225
     31 H9          3.4988   -3.4315   -6.8990 H         1 <0>         0.1809
     32 H10         3.6716   -6.0247   -6.6621 H         1 <0>         0.2046
     33 H11         0.2104    0.7445    2.6404 H         1 <0>         0.1370
     34 H12        -0.9592   -0.5566    2.2959 H         1 <0>         0.1392
     35 H13         0.3519   -0.8639    4.4515 H         1 <0>         0.1252
     36 H14         0.4859   -2.2177    3.3054 H         1 <0>         0.1028
     37 H15         2.4615   -1.8367    5.4097 H         1 <0>         0.1353
     38 H16         4.9087   -1.5921    5.4290 H         1 <0>         0.1372
     39 H17         6.0613   -0.6189    3.4797 H         1 <0>         0.1377
     40 H18         4.7623    0.1088    1.5236 H         1 <0>         0.1339
     41 H19         2.6655   -0.2757    0.2514 H         1 <0>         0.1386
     42 H20         2.0250    1.0988    1.1782 H         1 <0>         0.1445
     43 H21         0.8615   -1.5831    0.9813 H         1 <0>         0.4183
@<TRIPOS>BOND
     1    1    2 1
     2    1   24 1
     3    1   25 1
     4    1   26 1
     5    2    3 1
     6    2    4 1
     7    2   14 1
     8    4    5 1
     9    4   27 1
    10    4   28 1
    11    5    6 am
    12    5   29 1
    13    6    7 2
    14    6    8 am
    15    8    9 1
    16    8   30 1
    17    9   13 1
    18    9   10 2
    19   10   11 1
    20   11   12 2
    21   11   31 1
    22   12   13 1
    23   12   32 1
    24   14   23 1
    25   14   15 1
    26   14   43 1
    27   15   16 1
    28   15   33 1
    29   15   34 1
    30   16   17 1
    31   16   35 1
    32   16   36 1
    33   17   22 ar
    34   17   18 ar
    35   18   19 ar
    36   18   37 1
    37   19   20 ar
    38   19   38 1
    39   20   21 ar
    40   20   39 1
    41   21   22 ar
    42   21   40 1
    43   22   23 1
    44   23   41 1
    45   23   42 1
@<TRIPOS>MOLECULE
ZINC53205702
   41    42     0     0     0
SMALL
USER_CHARGES

@<TRIPOS>ATOM
      1 C1         -0.2741    0.4997   -0.3373 C.3       1 <0>        -0.0478
      2 N1         -0.0174   -0.9459   -0.2900 N.4       1 <0>        -0.3815
      3 C2         -1.2936   -1.6697   -0.3343 C.3       1 <0>        -0.0118
      4 C3         -1.0289   -3.1764   -0.3670 C.3       1 <0>        -0.1456
      5 C4         -0.2544   -3.5806    0.8908 C.3       1 <0>        -0.1464
      6 C5          1.0399   -2.7654    0.9653 C.3       1 <0>         0.1304
      7 H1          1.6702   -3.0041    0.1087 H         1 <0>         0.1110
      8 C6          0.6985   -1.2739    0.9487 C.3       1 <0>        -0.0317
      9 N2          1.7526   -3.0913    2.2031 N.pl3     1 <0>        -0.9922
     10 C7          1.1127   -2.8577    3.5001 C.3       1 <0>         0.0786
     11 S1          3.2817   -3.7237    2.1361 S.o2      1 <0>         2.6858
     12 O1          3.4815   -4.4327    3.3513 O.2       1 <0>        -0.9103
     13 O2          3.4100   -4.3422    0.8633 O.2       1 <0>        -0.9463
     14 C8          4.4073   -2.3682    2.1531 C.ar      1 <0>        -0.7581
     15 C9          4.7524   -1.7362    0.9652 C.ar      1 <0>         0.3265
     16 C10         5.6395   -0.6678    0.9823 C.ar      1 <0>        -0.2000
     17 C11         6.1766   -0.2361    2.1808 C.ar      1 <0>         0.0743
     18 C12         5.8311   -0.8674    3.3625 C.ar      1 <0>        -0.1701
     19 C13         4.9432   -1.9291    3.3490 C.ar      1 <0>         0.1008
     20 Cl1         4.5069   -2.7137    4.8348 Cl        1 <0>        -0.0008
     21 Cl2         7.2860    1.0990    2.2030 Cl        1 <0>        -0.0266
     22 N3          4.2086   -2.1747   -0.2443 N.pl3     1 <0>        -0.8644
     23 H2          0.6733    1.0381   -0.3111 H         1 <0>         0.1245
     24 H3         -0.8058    0.7444   -1.2568 H         1 <0>         0.1288
     25 H4         -0.8804    0.7894    0.5210 H         1 <0>         0.1243
     26 H5         -1.8812   -1.4236    0.5502 H         1 <0>         0.1322
     27 H6         -1.8450   -1.3786   -1.2283 H         1 <0>         0.1369
     28 H7         -1.9777   -3.7121   -0.3980 H         1 <0>         0.1222
     29 H8         -0.4415   -3.4237   -1.2513 H         1 <0>         0.0932
     30 H9         -0.8624   -3.3807    1.7731 H         1 <0>         0.0943
     31 H10        -0.0141   -4.6428    0.8453 H         1 <0>         0.1050
     32 H11         1.6178   -0.6906    1.0019 H         1 <0>         0.1346
     33 H12         0.0684   -1.0362    1.8058 H         1 <0>         0.1421
     34 H13         0.5605   -3.7488    3.7985 H         1 <0>         0.0782
     35 H14         1.8752   -2.6357    4.2467 H         1 <0>         0.0865
     36 H15         0.4264   -2.0147    3.4200 H         1 <0>         0.0758
     37 H16         5.9098   -0.1749    0.0601 H         1 <0>         0.1512
     38 H17         6.2519   -0.5285    4.2977 H         1 <0>         0.1566
     39 H18         3.4305   -2.7538   -0.2445 H         1 <0>         0.4008
     40 H19         4.6091   -1.9001   -1.0840 H         1 <0>         0.4149
     41 H20         0.5459   -1.2126   -1.0835 H         1 <0>         0.4247
@<TRIPOS>BOND
     1    1    2 1
     2    1   23 1
     3    1   24 1
     4    1   25 1
     5    2    8 1
     6    2    3 1
     7    2   41 1
     8    3    4 1
     9    3   26 1
    10    3   27 1
    11    4    5 1
    12    4   28 1
    13    4   29 1
    14    5    6 1
    15    5   30 1
    16    5   31 1
    17    6    7 1
    18    6    8 1
    19    6    9 1
    20    8   32 1
    21    8   33 1
    22    9   10 1
    23    9   11 1
    24   10   34 1
    25   10   35 1
    26   10   36 1
    27   11   12 2
    28   11   13 2
    29   11   14 1
    30   14   19 ar
    31   14   15 ar
    32   15   16 ar
    33   15   22 1
    34   16   17 ar
    35   16   37 1
    36   17   18 ar
    37   17   21 1
    38   18   19 ar
    39   18   38 1
    40   19   20 1
    41   22   39 1
    42   22   40 1
@<TRIPOS>MOLECULE
ZINC65373075
   49    52     0     0     0
SMALL
USER_CHARGES

@<TRIPOS>ATOM
      1 C1         -0.0187    1.5258    0.0104 C.3       1 <0>        -0.1487
      2 C2          0.0021   -0.0041    0.0020 C.3       1 <0>        -0.0864
      3 C3         -1.4117   -0.5257    0.0127 C.ar      1 <0>        -0.1214
      4 C4         -2.0610   -0.7697    1.2135 C.ar      1 <0>        -0.0779
      5 C5         -3.3611   -1.2493    1.1750 C.ar      1 <0>        -0.1460
      6 C6         -3.9628   -1.4667   -0.0503 C.ar      1 <0>         0.1163
      7 N1         -3.3146   -1.2238   -1.1725 N.ar      1 <0>        -0.4658
      8 C7         -2.0795   -0.7615   -1.1739 C.ar      1 <0>         0.1092
      9 C8         -5.3758   -1.9878   -0.1041 C.3       1 <0>         0.1416
     10 H1         -5.3919   -2.9861   -0.5416 H         1 <0>         0.1060
     11 C9         -6.2659   -1.0311   -0.9261 C.3       1 <0>         0.1149
     12 H2         -5.8372   -0.0292   -0.9455 H         1 <0>         0.0744
     13 N2         -7.5555   -1.0352   -0.1836 N.3       1 <0>        -0.6730
     14 C10        -7.1245   -1.0984    1.2365 C.3       1 <0>         0.1797
     15 N3         -5.9618   -2.0156    1.2529 N.3       1 <0>        -0.5265
     16 C11        -6.3689   -3.3777    1.6227 C.3       1 <0>         0.0909
     17 C12        -6.7297   -3.4145    3.0854 C.cat     1 <0>         0.3215
     18 N4         -6.3581   -2.5257    3.9928 N.pl3     1 <0>        -0.4741
     19 C13        -6.8748   -2.8959    5.1830 C.2       1 <0>         0.0160
     20 C14        -7.5715   -4.0322    4.9827 C.2       1 <0>         0.0201
     21 N5         -7.4747   -4.3376    3.6719 N.pl3     1 <0>        -0.4859
     22 C15        -6.4544   -1.5534   -2.3271 C.ar      1 <0>        -0.0865
     23 C16        -7.3847   -2.5451   -2.5757 C.ar      1 <0>        -0.0945
     24 C17        -7.5576   -3.0242   -3.8608 C.ar      1 <0>        -0.1282
     25 C18        -6.8004   -2.5112   -4.8974 C.ar      1 <0>        -0.1097
     26 C19        -5.8707   -1.5189   -4.6489 C.ar      1 <0>        -0.1212
     27 C20        -5.7009   -1.0368   -3.3645 C.ar      1 <0>        -0.0849
     28 H3          1.0039    1.9031    0.0027 H         1 <0>         0.0653
     29 H4         -0.5459    1.8868   -0.8726 H         1 <0>         0.0575
     30 H5         -0.5289    1.8773    0.9072 H         1 <0>         0.0544
     31 H6          0.5123   -0.3556   -0.8948 H         1 <0>         0.0798
     32 H7          0.5293   -0.3651    0.8851 H         1 <0>         0.0764
     33 H8         -1.5654   -0.5908    2.1563 H         1 <0>         0.1344
     34 H9         -3.8970   -1.4508    2.0908 H         1 <0>         0.1336
     35 H10        -1.5825   -0.5693   -2.1133 H         1 <0>         0.1595
     36 H11        -8.0800   -0.1926   -0.3651 H         1 <0>         0.3622
     37 H12        -6.8307   -0.1088    1.5864 H         1 <0>         0.0773
     38 H13        -7.9272   -1.4963    1.8574 H         1 <0>         0.0863
     39 H14        -7.2333   -3.6727    1.0278 H         1 <0>         0.1125
     40 H15        -5.5457   -4.0668    1.4341 H         1 <0>         0.1391
     41 H16        -7.8796   -5.1033    3.2351 H         1 <0>         0.4657
     42 H17        -6.7525   -2.3777    6.1226 H         1 <0>         0.2274
     43 H18        -8.1106   -4.5927    5.7321 H         1 <0>         0.2283
     44 H19        -7.9763   -2.9459   -1.7659 H         1 <0>         0.1228
     45 H20        -8.2840   -3.7995   -4.0550 H         1 <0>         0.1215
     46 H21        -6.9349   -2.8860   -5.9013 H         1 <0>         0.1229
     47 H22        -5.2789   -1.1183   -5.4587 H         1 <0>         0.1239
     48 H23        -4.9771   -0.2589   -3.1710 H         1 <0>         0.1223
     49 H24        -5.8088   -1.7430    3.8302 H         1 <0>         0.4671
@<TRIPOS>BOND
     1    1    2 1
     2    1   28 1
     3    1   29 1
     4    1   30 1
     5    2    3 1
     6    2   31 1
     7    2   32 1
     8    3    8 ar
     9    3    4 ar
    10    4    5 ar
    11    4   33 1
    12    5    6 ar
    13    5   34 1
    14    6    7 ar
    15    6    9 1
    16    7    8 ar
    17    8   35 1
    18    9   10 1
    19    9   15 1
    20    9   11 1
    21   11   12 1
    22   11   13 1
    23   11   22 1
    24   13   14 1
    25   13   36 1
    26   14   15 1
    27   14   37 1
    28   14   38 1
    29   15   16 1
    30   16   39 1
    31   16   40 1
    32   16   17 1
    33   17   21 1
    34   17   18 2
    35   18   19 1
    36   18   49 1
    37   19   20 2
    38   19   42 1
    39   20   21 1
    40   20   43 1
    41   21   41 1
    42   22   27 ar
    43   22   23 ar
    44   23   24 ar
    45   23   44 1
    46   24   25 ar
    47   24   45 1
    48   25   26 ar
    49   25   46 1
    50   26   27 ar
    51   26   47 1
    52   27   48 1
@<TRIPOS>MOLECULE
ZINC01683259
   50    51     0     0     0
SMALL
USER_CHARGES
2-(dimethylaminomethyl)-6-morpholino-4-tert-butyl-phenol
@<TRIPOS>ATOM
      1 C1         -0.6627    2.2782   -6.3552 C.3       1 <0>        -0.1424
      2 C2         -0.8339    3.7663   -6.0435 C.3       1 <0>        -0.0333
      3 C3         -1.7140    4.4138   -7.1145 C.3       1 <0>        -0.1478
      4 C4          0.5370    4.4457   -6.0308 C.3       1 <0>        -0.1437
      5 C5         -1.4858    3.9251   -4.6941 C.ar      1 <0>        -0.0383
      6 C6         -2.6983    4.5808   -4.5869 C.ar      1 <0>        -0.1031
      7 C7         -3.3010    4.7300   -3.3513 C.ar      1 <0>        -0.1623
      8 C8         -2.6931    4.2171   -2.2174 C.ar      1 <0>         0.1015
      9 C9         -1.4686    3.5613   -2.3237 C.ar      1 <0>         0.1003
     10 C10        -0.8698    3.4154   -3.5666 C.ar      1 <0>        -0.1226
     11 N1         -0.8468    3.0461   -1.1805 N.pl3     1 <0>        -0.4791
     12 C11        -0.4253    4.1271   -0.2776 C.3       1 <0>         0.0229
     13 C12         0.1942    3.5189    0.9834 C.3       1 <0>         0.0610
     14 O1          1.2823    2.6682    0.6123 O.3       1 <0>        -0.3774
     15 C13         0.9075    1.6045   -0.2671 C.3       1 <0>         0.0613
     16 C14         0.2952    2.1933   -1.5408 C.3       1 <0>         0.0094
     17 O2         -3.2876    4.3582   -1.0022 O.3       1 <0>        -0.4907
     18 C15        -4.6227    5.4453   -3.2394 C.3       1 <0>         0.0565
     19 C16        -6.9556    5.1303   -2.6729 C.3       1 <0>        -0.0422
     20 C17        -5.8627    3.5997   -4.1979 C.3       1 <0>        -0.0443
     21 H1         -1.6394    1.7942   -6.3643 H         1 <0>         0.0576
     22 H2         -0.1912    2.1633   -7.3312 H         1 <0>         0.0683
     23 H3         -0.0357    1.8169   -5.5922 H         1 <0>         0.0580
     24 H4         -1.8360    5.4739   -6.8924 H         1 <0>         0.0601
     25 H5         -1.2425    4.2989   -8.0905 H         1 <0>         0.0684
     26 H6         -2.6906    3.9298   -7.1236 H         1 <0>         0.0578
     27 H7          1.1640    3.9844   -5.2678 H         1 <0>         0.0575
     28 H8          1.0085    4.3308   -7.0068 H         1 <0>         0.0684
     29 H9          0.4150    5.5058   -5.8087 H         1 <0>         0.0589
     30 H10        -3.1758    4.9777   -5.4705 H         1 <0>         0.1413
     31 H11         0.0772    2.9034   -3.6532 H         1 <0>         0.1414
     32 H12        -1.2906    4.7305   -0.0034 H         1 <0>         0.0884
     33 H13         0.3120    4.7538   -0.7794 H         1 <0>         0.0559
     34 H14         0.5599    4.3164    1.6303 H         1 <0>         0.1071
     35 H15        -0.5587    2.9362    1.5142 H         1 <0>         0.0655
     36 H16         0.1755    0.9656    0.2269 H         1 <0>         0.0651
     37 H17         1.7885    1.0169   -0.5248 H         1 <0>         0.1087
     38 H18        -0.0443    1.3851   -2.1887 H         1 <0>         0.0954
     39 H19         1.0439    2.7891   -2.0629 H         1 <0>         0.0597
     40 H20        -3.1034    5.2035   -0.5701 H         1 <0>         0.3917
     41 H21        -4.5901    6.1395   -2.3997 H         1 <0>         0.1317
     42 H22        -4.8164    5.9968   -4.1594 H         1 <0>         0.1372
     43 H23        -7.2511    5.7963   -3.4835 H         1 <0>         0.1228
     44 H24        -7.7315    4.3807   -2.5174 H         1 <0>         0.1227
     45 H25        -6.8203    5.7083   -1.7587 H         1 <0>         0.1211
     46 H26        -4.9329    3.0651   -4.3924 H         1 <0>         0.1191
     47 H27        -6.6617    2.8826   -4.0101 H         1 <0>         0.1219
     48 H28        -6.1186    4.2103   -5.0638 H         1 <0>         0.1226
     49 N2         -5.6862    4.4472   -2.9999 N.4       1 <0>        -0.3960
     50 H29        -5.4137    3.8529   -2.2082 H         1 <0>         0.4360
@<TRIPOS>BOND
     1    1    2 1
     2    1   21 1
     3    1   22 1
     4    1   23 1
     5    2    3 1
     6    2    4 1
     7    2    5 1
     8    3   24 1
     9    3   25 1
    10    3   26 1
    11    4   27 1
    12    4   28 1
    13    4   29 1
    14    5   10 ar
    15    5    6 ar
    16    6    7 ar
    17    6   30 1
    18    7    8 ar
    19    7   18 1
    20    8    9 ar
    21    8   17 1
    22    9   10 ar
    23    9   11 1
    24   10   31 1
    25   11   16 1
    26   11   12 1
    27   12   13 1
    28   12   32 1
    29   12   33 1
    30   13   14 1
    31   13   34 1
    32   13   35 1
    33   14   15 1
    34   15   16 1
    35   15   36 1
    36   15   37 1
    37   16   38 1
    38   16   39 1
    39   17   40 1
    40   18   41 1
    41   18   42 1
    42   18   49 1
    43   19   43 1
    44   19   44 1
    45   19   45 1
    46   19   49 1
    47   20   46 1
    48   20   47 1
    49   20   48 1
    50   20   49 1
    51   49   50 1
@<TRIPOS>MOLECULE
ZINC36161331
   45    47     0     0     0
SMALL
USER_CHARGES

@<TRIPOS>ATOM
      1 C1          0.0820    1.4526   -0.2092 C.3       1 <0>        -0.1812
      2 C2          0.0235   -0.0656   -0.0286 C.3       1 <0>        -0.0215
      3 N1         -1.3741   -0.4849    0.1418 N.4       1 <0>        -0.3735
      4 C3         -2.1159   -0.2330   -1.1009 C.3       1 <0>        -0.0167
      5 C4         -3.5996   -0.5332   -0.8788 C.3       1 <0>        -0.1919
      6 C5         -1.4200   -1.9188    0.4575 C.3       1 <0>         0.0521
      7 C6         -0.7656   -2.1603    1.7933 C.2       1 <0>         0.3522
      8 N2         -0.6919   -3.4255    2.2809 N.am      1 <0>        -0.6236
      9 H1         -1.0620   -4.1568    1.7621 H         1 <0>         0.4265
     10 C7         -0.1155   -3.6858    3.4691 C.2       1 <0>         0.5554
     11 O1         -0.0571   -4.8272    3.8927 O.2       1 <0>        -0.4885
     12 C8          0.4288   -2.5982    4.2279 C.2       1 <0>        -0.2020
     13 C9          1.0951   -2.6420    5.5289 C.2       1 <0>        -0.0628
     14 C10         1.5221   -1.4669    6.0376 C.2       1 <0>        -0.1389
     15 S1          1.0674   -0.2512    4.8304 S.3       1 <0>         0.1871
     16 C11         0.3049   -1.3279    3.6432 C.2       1 <0>         0.0597
     17 N3         -0.2745   -1.1496    2.4593 N.2       1 <0>        -0.4864
     18 C12         2.2280   -1.2448    7.3404 C.3       1 <0>        -0.0416
     19 C13         2.7326   -2.6007    7.8548 C.3       1 <0>        -0.0865
     20 H2          3.5714   -2.9344    7.2440 H         1 <0>         0.0791
     21 C14         1.5912   -3.6174    7.7596 C.3       1 <0>        -0.1209
     22 C15         1.3086   -3.9457    6.2931 C.3       1 <0>        -0.0614
     23 C16         3.1811   -2.4625    9.3111 C.3       1 <0>        -0.1498
     24 H3          1.1226    1.7768   -0.2243 H         1 <0>         0.1053
     25 H4         -0.3972    1.7254   -1.1495 H         1 <0>         0.0786
     26 H5         -0.4376    1.9371    0.6174 H         1 <0>         0.0814
     27 H6          0.4442   -0.5526   -0.9083 H         1 <0>         0.1263
     28 H7          0.5980   -0.3490    0.8533 H         1 <0>         0.1456
     29 H8         -1.9958    0.8109   -1.3905 H         1 <0>         0.1400
     30 H9         -1.7294   -0.8762   -1.8914 H         1 <0>         0.1339
     31 H10        -3.7314   -1.6000   -0.6980 H         1 <0>         0.0798
     32 H11        -3.9590    0.0285   -0.0166 H         1 <0>         0.0820
     33 H12        -4.1656   -0.2421   -1.7637 H         1 <0>         0.1102
     34 H13        -2.4580   -2.2492    0.4964 H         1 <0>         0.1659
     35 H14        -0.8895   -2.4778   -0.3134 H         1 <0>         0.1652
     36 H15         3.0722   -0.5718    7.1904 H         1 <0>         0.0913
     37 H16         1.5367   -0.8120    8.0634 H         1 <0>         0.0950
     38 H17         1.8732   -4.5288    8.2868 H         1 <0>         0.0784
     39 H18         0.6944   -3.1989    8.2165 H         1 <0>         0.0684
     40 H19         0.4118   -4.5611    6.2231 H         1 <0>         0.0883
     41 H20         2.1567   -4.4830    5.8688 H         1 <0>         0.0835
     42 H21         2.3393   -2.1342    9.9209 H         1 <0>         0.0594
     43 H22         3.5388   -3.4260    9.6741 H         1 <0>         0.0634
     44 H23         3.9846   -1.7288    9.3757 H         1 <0>         0.0606
     45 H24        -1.7929    0.0391    0.8956 H         1 <0>         0.4326
@<TRIPOS>BOND
     1    1    2 1
     2    1   24 1
     3    1   25 1
     4    1   26 1
     5    2    3 1
     6    2   27 1
     7    2   28 1
     8    3    4 1
     9    3    6 1
    10    3   45 1
    11    4    5 1
    12    4   29 1
    13    4   30 1
    14    5   31 1
    15    5   32 1
    16    5   33 1
    17    6    7 1
    18    6   34 1
    19    6   35 1
    20    7   17 2
    21    7    8 1
    22    8    9 1
    23    8   10 am
    24   10   11 2
    25   10   12 1
    26   12   16 2
    27   12   13 1
    28   13   22 1
    29   13   14 2
    30   14   15 1
    31   14   18 1
    32   15   16 1
    33   16   17 1
    34   18   19 1
    35   18   36 1
    36   18   37 1
    37   19   20 1
    38   19   21 1
    39   19   23 1
    40   21   22 1
    41   21   38 1
    42   21   39 1
    43   22   40 1
    44   22   41 1
    45   23   42 1
    46   23   43 1
    47   23   44 1
@<TRIPOS>MOLECULE
ZINC41185764
   39    41     0     0     0
SMALL
USER_CHARGES

@<TRIPOS>ATOM
      1 C1         -0.0184    1.5028    0.0103 C.3       1 <0>        -0.0844
      2 C2          0.0021   -0.0041    0.0020 C.2       1 <0>         0.0524
      3 C3          0.0059   -0.7076   -1.1591 C.2       1 <0>        -0.1511
      4 S1          0.0324   -2.3789   -0.5312 S.3       1 <0>         0.1946
      5 C4          0.0357   -2.0088    1.1107 C.2       1 <0>        -0.0656
      6 N1          0.0226   -0.6992    1.1217 N.2       1 <0>        -0.4794
      7 C5          0.0549   -2.9548    2.2837 C.3       1 <0>         0.2069
      8 H1         -0.1989   -3.9591    1.9446 H         1 <0>         0.1674
      9 C6          1.4307   -2.9648    2.8985 C.ar      1 <0>        -0.1367
     10 C7          2.3122   -3.9869    2.6003 C.ar      1 <0>        -0.0752
     11 C8          3.5794   -3.9988    3.1638 C.ar      1 <0>         0.0759
     12 C9          3.9614   -2.9795    4.0277 C.ar      1 <0>         0.0928
     13 C10         3.0715   -1.9571    4.3246 C.ar      1 <0>        -0.0291
     14 C11         1.8109   -1.9489    3.7551 C.ar      1 <0>        -0.0941
     15 Cl1         3.5429   -0.6839    5.4065 Cl        1 <0>        -0.0204
     16 O1          5.2031   -2.9678    4.5855 O.3       1 <0>        -0.2859
     17 C12         5.9323   -4.1997    4.5587 C.3       1 <0>         0.0159
     18 C13         5.8203   -4.7938    3.1481 C.3       1 <0>         0.0169
     19 O2          4.4346   -5.0141    2.8632 O.3       1 <0>        -0.2942
     20 N2         -0.9256   -2.5135    3.2847 N.4       1 <0>        -0.5031
     21 C14        -2.2791   -2.6178    2.7235 C.3       1 <0>        -0.0475
     22 C15        -0.0083   -0.2146   -2.5831 C.3       1 <0>        -0.0798
     23 H2          1.0042    1.8801    0.0026 H         1 <0>         0.0817
     24 H3         -0.5455    1.8639   -0.8728 H         1 <0>         0.0823
     25 H4         -0.5286    1.8543    0.9071 H         1 <0>         0.0783
     26 H5          2.0135   -4.7776    1.9279 H         1 <0>         0.1538
     27 H6          1.1213   -1.1497    3.9833 H         1 <0>         0.1419
     28 H7          6.9794   -4.0123    4.7966 H         1 <0>         0.1377
     29 H8          5.5084   -4.8937    5.2845 H         1 <0>         0.0899
     30 H9          6.2388   -4.0973    2.4216 H         1 <0>         0.0881
     31 H10         6.3597   -5.7400    3.1039 H         1 <0>         0.1375
     32 H11        -0.8554   -3.0977    4.1044 H         1 <0>         0.4385
     33 H12        -2.4802   -3.6535    2.4498 H         1 <0>         0.1290
     34 H13        -3.0066   -2.2904    3.4662 H         1 <0>         0.1344
     35 H14        -2.3549   -1.9867    1.8379 H         1 <0>         0.1191
     36 H15         1.0159   -0.0814   -2.9317 H         1 <0>         0.0937
     37 H16        -0.5152   -0.9438   -3.2150 H         1 <0>         0.0853
     38 H17        -0.5357    0.7380   -2.6326 H         1 <0>         0.0965
     39 H18        -0.7394   -1.5548    3.5380 H         1 <0>         0.4359
@<TRIPOS>BOND
     1    1    2 1
     2    1   23 1
     3    1   24 1
     4    1   25 1
     5    2    6 1
     6    2    3 2
     7    3    4 1
     8    3   22 1
     9    4    5 1
    10    5    6 2
    11    5    7 1
    12    7    8 1
    13    7    9 1
    14    7   20 1
    15    9   14 ar
    16    9   10 ar
    17   10   11 ar
    18   10   26 1
    19   11   19 1
    20   11   12 ar
    21   12   13 ar
    22   12   16 1
    23   13   14 ar
    24   13   15 1
    25   14   27 1
    26   16   17 1
    27   17   18 1
    28   17   28 1
    29   17   29 1
    30   18   19 1
    31   18   30 1
    32   18   31 1
    33   20   21 1
    34   20   32 1
    35   20   39 1
    36   21   33 1
    37   21   34 1
    38   21   35 1
    39   22   36 1
    40   22   37 1
    41   22   38 1
@<TRIPOS>MOLECULE
ZINC50618964
   35    36     0     0     0
SMALL
USER_CHARGES

@<TRIPOS>ATOM
      1 C1         -0.0187    1.5258    0.0104 C.3       1 <0>        -0.1895
      2 C2          0.0021   -0.0041    0.0020 C.3       1 <0>        -0.0127
      3 N1         -1.3761   -0.5125    0.0124 N.4       1 <0>        -0.5061
      4 C3         -1.3562   -1.9814    0.0044 C.3       1 <0>         0.1491
      5 H1         -0.7538   -2.3412    0.8385 H         1 <0>         0.1693
      6 C4         -0.7522   -2.4760   -1.3115 C.3       1 <0>        -0.1831
      7 C5         -2.7634   -2.5036    0.1388 C.2       1 <0>         0.0828
      8 N2         -3.8094   -2.0730   -0.5094 N.2       1 <0>        -0.2456
      9 N3         -4.8457   -2.7446   -0.1481 N.2       1 <0>        -0.2636
     10 C6         -4.4934   -3.6339    0.7504 C.2       1 <0>         0.2735
     11 O1         -3.1660   -3.5014    0.9445 O.3       1 <0>        -0.2005
     12 C7         -5.3851   -4.6042    1.4205 C.ar      1 <0>        -0.0537
     13 C8         -4.8698   -5.4923    2.3662 C.ar      1 <0>        -0.0617
     14 C9         -5.7066   -6.3952    2.9879 C.ar      1 <0>        -0.1012
     15 C10        -7.0554   -6.4218    2.6758 C.ar      1 <0>        -0.0482
     16 C11        -7.5723   -5.5436    1.7389 C.ar      1 <0>        -0.0963
     17 C12        -6.7463   -4.6320    1.1144 C.ar      1 <0>        -0.0075
     18 C13        -7.3118   -3.6720    0.0996 C.3       1 <0>        -0.1399
     19 Br1        -8.1959   -7.6634    3.5325 Br        1 <0>        -0.0170
     20 H2          1.0039    1.9031    0.0027 H         1 <0>         0.1120
     21 H3         -0.5459    1.8868   -0.8726 H         1 <0>         0.0841
     22 H4         -0.5289    1.8773    0.9072 H         1 <0>         0.0823
     23 H5          0.5123   -0.3556   -0.8948 H         1 <0>         0.1388
     24 H6          0.5293   -0.3651    0.8851 H         1 <0>         0.1367
     25 H7         -1.8484   -0.1871    0.8426 H         1 <0>         0.4326
     26 H8          0.2656   -2.0983   -1.4087 H         1 <0>         0.1052
     27 H9         -0.7374   -3.5659   -1.3175 H         1 <0>         0.1132
     28 H10        -1.3545   -2.1162   -2.1457 H         1 <0>         0.0959
     29 H11        -3.8179   -5.4727    2.6102 H         1 <0>         0.1431
     30 H12        -5.3091   -7.0830    3.7195 H         1 <0>         0.1500
     31 H13        -8.6251   -5.5694    1.4993 H         1 <0>         0.1522
     32 H14        -7.2662   -4.1228   -0.8917 H         1 <0>         0.0866
     33 H15        -8.3488   -3.4482    0.3497 H         1 <0>         0.0796
     34 H16        -6.7293   -2.7508    0.1070 H         1 <0>         0.1021
     35 H17        -1.8641   -0.1783   -0.8050 H         1 <0>         0.4375
@<TRIPOS>BOND
     1    1    2 1
     2    1   20 1
     3    1   21 1
     4    1   22 1
     5    2    3 1
     6    2   23 1
     7    2   24 1
     8    3    4 1
     9    3   25 1
    10    3   35 1
    11    4    5 1
    12    4    6 1
    13    4    7 1
    14    6   26 1
    15    6   27 1
    16    6   28 1
    17    7   11 1
    18    7    8 2
    19    8    9 1
    20    9   10 2
    21   10   11 1
    22   10   12 1
    23   12   17 ar
    24   12   13 ar
    25   13   14 ar
    26   13   29 1
    27   14   15 ar
    28   14   30 1
    29   15   16 ar
    30   15   19 1
    31   16   17 ar
    32   16   31 1
    33   17   18 1
    34   18   32 1
    35   18   33 1
    36   18   34 1
@<TRIPOS>MOLECULE
ZINC61671733
   44    46     0     0     0
SMALL
USER_CHARGES

@<TRIPOS>ATOM
      1 C1          0.1819    1.3089   -0.0859 C.3       1 <0>        -0.0533
      2 N1          0.0471   -0.1490    0.0333 N.4       1 <0>        -0.5092
      3 C2         -1.3761   -0.5125    0.0124 C.3       1 <0>         0.0808
      4 H1         -1.9031    0.0378    0.7918 H         1 <0>         0.1553
      5 C3         -1.5202   -1.9925    0.2576 C.ar      1 <0>        -0.1239
      6 C4         -0.5202   -2.8593   -0.1472 C.ar      1 <0>        -0.1161
      7 C5         -0.6560   -4.2179    0.0801 C.ar      1 <0>         0.0928
      8 C6         -1.7910   -4.7078    0.7110 C.ar      1 <0>         0.1097
      9 C7         -2.7900   -3.8391    1.1148 C.ar      1 <0>        -0.0943
     10 C8         -2.6488   -2.4797    0.8914 C.ar      1 <0>        -0.0051
     11 Cl1        -3.8950   -1.3845    1.4027 Cl        1 <0>        -0.0307
     12 O1         -1.9141   -6.0491    0.9310 O.3       1 <0>        -0.3112
     13 C9         -2.0829   -6.8603   -0.2333 C.3       1 <0>         0.0587
     14 C10        -0.7369   -7.1991   -0.8545 C.3       1 <0>        -0.1935
     15 C11        -0.0165   -5.9683   -1.3821 C.3       1 <0>         0.0594
     16 O2          0.3237   -5.0831   -0.3130 O.3       1 <0>        -0.3142
     17 C12        -1.9723   -0.1612   -1.3521 C.3       1 <0>        -0.1057
     18 C13        -1.2600   -0.9644   -2.4447 C.3       1 <0>        -0.1729
     19 C14        -1.9150   -0.6657   -3.7958 C.3       1 <0>         0.0624
     20 O3         -3.3062   -0.9855   -3.7303 O.3       1 <0>        -0.3717
     21 C15        -4.0331   -0.2310   -2.7584 C.3       1 <0>         0.0585
     22 C16        -3.4632   -0.5122   -1.3656 C.3       1 <0>        -0.1532
     23 H2          1.2379    1.5786   -0.0705 H         1 <0>         0.1331
     24 H3         -0.2639    1.6395   -1.0241 H         1 <0>         0.1262
     25 H4         -0.3284    1.7904    0.7483 H         1 <0>         0.1289
     26 H5          0.5194   -0.5947   -0.7390 H         1 <0>         0.4247
     27 H6          0.3623   -2.4773   -0.6387 H         1 <0>         0.1395
     28 H7         -3.6738   -4.2192    1.6054 H         1 <0>         0.1613
     29 H8         -2.5929   -7.7831    0.0432 H         1 <0>         0.1185
     30 H9         -2.6885   -6.3210   -0.9616 H         1 <0>         0.0641
     31 H10        -0.1114   -7.6788   -0.1017 H         1 <0>         0.0917
     32 H11        -0.8934   -7.8965   -1.6775 H         1 <0>         0.1031
     33 H12         0.8940   -6.2779   -1.8951 H         1 <0>         0.1165
     34 H13        -0.6650   -5.4474   -2.0865 H         1 <0>         0.0627
     35 H14        -1.8470    0.9050   -1.5411 H         1 <0>         0.1066
     36 H15        -0.2083   -0.6798   -2.4789 H         1 <0>         0.0699
     37 H16        -1.3433   -2.0291   -2.2269 H         1 <0>         0.0918
     38 H17        -1.7957    0.3918   -4.0317 H         1 <0>         0.0581
     39 H18        -1.4399   -1.2671   -4.5709 H         1 <0>         0.1041
     40 H19        -3.9416    0.8321   -2.9807 H         1 <0>         0.0581
     41 H20        -5.0840   -0.5192   -2.7862 H         1 <0>         0.1067
     42 H21        -3.5911   -1.5679   -1.1261 H         1 <0>         0.0861
     43 H22        -3.9873    0.0957   -0.6281 H         1 <0>         0.0902
     44 H23         0.4597   -0.4550    0.9017 H         1 <0>         0.4353
@<TRIPOS>BOND
     1    1    2 1
     2    1   23 1
     3    1   24 1
     4    1   25 1
     5    2    3 1
     6    2   26 1
     7    2   44 1
     8    3    4 1
     9    3    5 1
    10    3   17 1
    11    5   10 ar
    12    5    6 ar
    13    6    7 ar
    14    6   27 1
    15    7   16 1
    16    7    8 ar
    17    8    9 ar
    18    8   12 1
    19    9   10 ar
    20    9   28 1
    21   10   11 1
    22   12   13 1
    23   13   14 1
    24   13   29 1
    25   13   30 1
    26   14   15 1
    27   14   31 1
    28   14   32 1
    29   15   16 1
    30   15   33 1
    31   15   34 1
    32   17   22 1
    33   17   18 1
    34   17   35 1
    35   18   19 1
    36   18   36 1
    37   18   37 1
    38   19   20 1
    39   19   38 1
    40   19   39 1
    41   20   21 1
    42   21   22 1
    43   21   40 1
    44   21   41 1
    45   22   42 1
    46   22   43 1
@<TRIPOS>MOLECULE
ZINC11880866
   41    43     0     0     0
SMALL
USER_CHARGES
4-(4-fluorophenyl)-2-[(isoxazol-3-ylmethyl-methyl-amino)methyl]phenol
@<TRIPOS>ATOM
      1 C1          2.3571   -0.4395    2.9442 C.3       1 <0>        -0.0478
      2 C2          1.3386    1.5476    3.8805 C.3       1 <0>         0.0909
      3 C3          2.6454    2.2959    3.9396 C.2       1 <0>        -0.0579
      4 C4          2.9180    3.5690    3.3885 C.2       1 <0>        -0.2248
      5 C5          4.2149    3.7933    3.7085 C.2       1 <0>        -0.0201
      6 O1          4.6294    2.7162    4.3902 O.3       1 <0>         0.1311
      7 N1          3.7451    1.9005    4.5130 N.2       1 <0>        -0.3305
      8 C6          0.0252    0.0456    2.5089 C.3       1 <0>         0.0530
      9 C7          0.0230   -0.7031    1.2010 C.ar      1 <0>        -0.1769
     10 C8          0.0412   -2.0823    1.1966 C.ar      1 <0>        -0.0726
     11 C9          0.0387   -2.7739   -0.0132 C.ar      1 <0>        -0.0300
     12 C10         0.0177   -2.0691   -1.2157 C.ar      1 <0>        -0.0664
     13 C11        -0.0058   -0.6905   -1.2049 C.ar      1 <0>        -0.1270
     14 C12         0.0021   -0.0041    0.0020 C.ar      1 <0>         0.1190
     15 O2         -0.0164    1.3546    0.0095 O.3       1 <0>        -0.4902
     16 C13         0.0579   -4.2574   -0.0214 C.ar      1 <0>        -0.0789
     17 C14         0.0841   -4.9625    1.1804 C.ar      1 <0>        -0.0769
     18 C15         0.0960   -6.3422    1.1681 C.ar      1 <0>        -0.1505
     19 C16         0.0935   -7.0264   -0.0366 C.ar      1 <0>         0.1176
     20 C17         0.0732   -6.3293   -1.2338 C.ar      1 <0>        -0.1480
     21 C18         0.0554   -4.9497   -1.2309 C.ar      1 <0>        -0.0730
     22 F1          0.1104   -8.3773   -0.0440 F         1 <0>        -0.1298
     23 H1          2.3996   -1.0725    2.0578 H         1 <0>         0.1238
     24 H2          3.3343    0.0120    3.1154 H         1 <0>         0.1194
     25 H3          2.0790   -1.0427    3.8084 H         1 <0>         0.1289
     26 H4          0.5195    2.2561    3.7571 H         1 <0>         0.1535
     27 H5          1.1985    0.9876    4.8051 H         1 <0>         0.1491
     28 H6          2.2473    4.2136    2.8399 H         1 <0>         0.1862
     29 H7          4.7997    4.6673    3.4626 H         1 <0>         0.2321
     30 H8         -0.7129    0.8468    2.4702 H         1 <0>         0.1446
     31 H9         -0.2239   -0.6389    3.3198 H         1 <0>         0.1423
     32 H10         0.0571   -2.6257    2.1298 H         1 <0>         0.1415
     33 H11         0.0154   -2.6024   -2.1549 H         1 <0>         0.1442
     34 H12        -0.0262   -0.1439   -2.1362 H         1 <0>         0.1465
     35 H13         0.8616    1.7599    0.0033 H         1 <0>         0.3881
     36 H14         0.0907   -4.4299    2.1199 H         1 <0>         0.1335
     37 H15         0.1123   -6.8896    2.0990 H         1 <0>         0.1433
     38 H16         0.0716   -6.8666   -2.1706 H         1 <0>         0.1449
     39 H17         0.0399   -4.4070   -2.1645 H         1 <0>         0.1385
     40 N2          1.3650    0.6330    2.7197 N.4       1 <0>        -0.3922
     41 H18         1.6318    1.1642    1.8826 H         1 <0>         0.4215
@<TRIPOS>BOND
     1    1   23 1
     2    1   24 1
     3    1   25 1
     4    1   40 1
     5    2    3 1
     6    2   26 1
     7    2   27 1
     8    2   40 1
     9    3    7 2
    10    3    4 1
    11    4    5 2
    12    4   28 1
    13    5    6 1
    14    5   29 1
    15    6    7 1
    16    8    9 1
    17    8   30 1
    18    8   31 1
    19    8   40 1
    20    9   14 ar
    21    9   10 ar
    22   10   11 ar
    23   10   32 1
    24   11   12 ar
    25   11   16 1
    26   12   13 ar
    27   12   33 1
    28   13   14 ar
    29   13   34 1
    30   14   15 1
    31   15   35 1
    32   16   21 ar
    33   16   17 ar
    34   17   18 ar
    35   17   36 1
    36   18   19 ar
    37   18   37 1
    38   19   20 ar
    39   19   22 1
    40   20   21 ar
    41   20   38 1
    42   21   39 1
    43   40   41 1
@<TRIPOS>MOLECULE
ZINC41192973
   36    38     0     0     0
SMALL
USER_CHARGES

@<TRIPOS>ATOM
      1 C1         -0.0187    1.5258    0.0104 C.3       1 <0>        -0.1553
      2 C2          0.0021   -0.0041    0.0020 C.3       1 <0>        -0.1487
      3 C3         -1.4333   -0.5336    0.0129 C.3       1 <0>        -0.0118
      4 N1         -1.4134   -2.0025    0.0048 N.4       1 <0>        -0.5040
      5 C4         -2.7915   -2.5110    0.0152 C.3       1 <0>         0.2073
      6 H1         -3.3444   -2.0792   -0.8190 H         1 <0>         0.1701
      7 C5         -2.7742   -4.0121   -0.1168 C.ar      1 <0>        -0.1298
      8 C6         -3.7104   -4.6453   -0.9132 C.ar      1 <0>        -0.0658
      9 C7         -3.6966   -6.0251   -1.0369 C.ar      1 <0>         0.0632
     10 C8         -2.7377   -6.7721   -0.3572 C.ar      1 <0>         0.0778
     11 C9         -1.8025   -6.1312    0.4400 C.ar      1 <0>        -0.0185
     12 C10        -1.8188   -4.7522    0.5538 C.ar      1 <0>        -0.0858
     13 Cl1        -0.6051   -7.0579    1.2892 Cl        1 <0>        -0.0189
     14 O1         -2.9331   -8.0934   -0.6397 O.3       1 <0>        -0.2857
     15 C11        -4.2687   -8.1794   -1.1710 C.3       1 <0>         0.2099
     16 O2         -4.4927   -6.8782   -1.7453 O.3       1 <0>        -0.2922
     17 C12        -3.4583   -2.1284    1.3114 C.2       1 <0>        -0.0643
     18 N2         -2.9771   -2.2037    2.5271 N.2       1 <0>        -0.4870
     19 C13        -3.6885   -1.8272    3.5710 C.2       1 <0>         0.0307
     20 C14        -4.9394   -1.3594    3.3267 C.2       1 <0>        -0.1836
     21 S1         -4.9994   -1.4940    1.5472 S.3       1 <0>         0.2089
     22 H2          1.0039    1.9031    0.0027 H         1 <0>         0.0791
     23 H3         -0.5459    1.8868   -0.8726 H         1 <0>         0.0681
     24 H4         -0.5289    1.8773    0.9072 H         1 <0>         0.0660
     25 H5          0.5123   -0.3556   -0.8948 H         1 <0>         0.0897
     26 H6          0.5293   -0.3651    0.8851 H         1 <0>         0.0878
     27 H7         -1.9435   -0.1821    0.9097 H         1 <0>         0.1282
     28 H8         -1.9605   -0.1726   -0.8702 H         1 <0>         0.1367
     29 H9         -0.9411   -2.3279   -0.8254 H         1 <0>         0.4370
     30 H10        -4.4533   -4.0639   -1.4390 H         1 <0>         0.1567
     31 H11        -1.0866   -4.2537    1.1717 H         1 <0>         0.1480
     32 H12        -4.3268   -8.9517   -1.9380 H         1 <0>         0.1498
     33 H13        -4.9860   -8.3750   -0.3740 H         1 <0>         0.1009
     34 H14        -3.2945   -1.8884    4.5747 H         1 <0>         0.1889
     35 H15        -5.6889   -1.0015    4.0170 H         1 <0>         0.2120
     36 H16        -0.9254   -2.3367    0.8222 H         1 <0>         0.4345
@<TRIPOS>BOND
     1    1    2 1
     2    1   22 1
     3    1   23 1
     4    1   24 1
     5    2    3 1
     6    2   25 1
     7    2   26 1
     8    3    4 1
     9    3   27 1
    10    3   28 1
    11    4    5 1
    12    4   29 1
    13    4   36 1
    14    5    6 1
    15    5    7 1
    16    5   17 1
    17    7   12 ar
    18    7    8 ar
    19    8    9 ar
    20    8   30 1
    21    9   16 1
    22    9   10 ar
    23   10   11 ar
    24   10   14 1
    25   11   12 ar
    26   11   13 1
    27   12   31 1
    28   14   15 1
    29   15   16 1
    30   15   32 1
    31   15   33 1
    32   17   21 1
    33   17   18 2
    34   18   19 1
    35   19   20 2
    36   19   34 1
    37   20   21 1
    38   20   35 1
@<TRIPOS>MOLECULE
ZINC50830576
   41    42     0     0     0
SMALL
USER_CHARGES

@<TRIPOS>ATOM
      1 C1          0.0897    1.4326   -0.1028 C.3       1 <0>        -0.1072
      2 C2         -0.1380   -0.0568   -0.1330 C.ar      1 <0>        -0.0841
      3 C3         -0.2967   -0.7074   -1.3413 C.ar      1 <0>        -0.1041
      4 C4         -0.5063   -2.0748   -1.3695 C.ar      1 <0>        -0.0238
      5 C5         -0.5569   -2.7933   -0.1880 C.ar      1 <0>        -0.1037
      6 C6         -0.3985   -2.1463    1.0222 C.ar      1 <0>        -0.0804
      7 C7         -0.1826   -0.7763    1.0522 C.ar      1 <0>         0.0843
      8 O1         -0.0206   -0.1388    2.2417 O.3       1 <0>        -0.3221
      9 C8         -1.2001    0.3567    2.8782 C.3       1 <0>         0.1369
     10 C9         -0.8271    1.0277    4.1750 C.2       1 <0>        -0.2768
     11 C10        -0.7373    0.4100    5.4256 C.2       1 <0>         0.2698
     12 N1         -0.3878    1.3126    6.3060 N.pl3     1 <0>        -0.3940
     13 N2         -0.2422    2.5398    5.6468 N.pl3     1 <0>        -0.3647
     14 C11        -0.5118    2.3425    4.3362 C.2       1 <0>         0.4950
     15 N3         -0.4763    3.3087    3.3346 N.pl3     1 <0>        -0.6814
     16 C12        -0.1750    4.7022    3.6714 C.3       1 <0>         0.0535
     17 C13         0.1399    3.8111    6.2664 C.3       1 <0>         0.0578
     18 C14        -0.9987   -1.0464    5.7112 C.3       1 <0>        -0.1233
     19 C15        -0.4546   -2.9291    2.3087 C.3       1 <0>        -0.1131
     20 Cl1        -0.7067   -2.8899   -2.8890 Cl        1 <0>        -0.0524
     21 H1          1.1592    1.6377   -0.1508 H         1 <0>         0.0809
     22 H2         -0.4073    1.8935   -0.9564 H         1 <0>         0.0763
     23 H3         -0.3180    1.8438    0.8206 H         1 <0>         0.0541
     24 H4         -0.2576   -0.1483   -2.2644 H         1 <0>         0.1415
     25 H5         -0.7205   -3.8605   -0.2120 H         1 <0>         0.1421
     26 H6         -1.6905    1.0776    2.2240 H         1 <0>         0.0714
     27 H7         -1.8794   -0.4716    3.0800 H         1 <0>         0.0833
     28 H8         -0.6511    3.0592    2.4137 H         1 <0>         0.4385
     29 H9         -0.1308    5.2954    2.7580 H         1 <0>         0.1099
     30 H10        -0.9556    5.0955    4.3226 H         1 <0>         0.0768
     31 H11         0.7855    4.7526    4.1842 H         1 <0>         0.0777
     32 H12         1.2099    3.9722    6.1350 H         1 <0>         0.1048
     33 H13        -0.4106    4.6251    5.7947 H         1 <0>         0.1263
     34 H14        -0.0952    3.7820    7.3303 H         1 <0>         0.1132
     35 H15        -0.0717   -1.6098    5.6042 H         1 <0>         0.1231
     36 H16        -1.3746   -1.1554    6.7285 H         1 <0>         0.1036
     37 H17        -1.7388   -1.4275    5.0076 H         1 <0>         0.1186
     38 H18         0.5466   -3.2727    2.5689 H         1 <0>         0.0803
     39 H19        -0.8385   -2.2919    3.1053 H         1 <0>         0.0655
     40 H20        -1.1124   -3.7890    2.1824 H         1 <0>         0.0749
     41 H21        -0.2525    1.1581    7.2540 H         1 <0>         0.4713
@<TRIPOS>BOND
     1    1    2 1
     2    1   21 1
     3    1   22 1
     4    1   23 1
     5    2    7 ar
     6    2    3 ar
     7    3    4 ar
     8    3   24 1
     9    4    5 ar
    10    4   20 1
    11    5    6 ar
    12    5   25 1
    13    6    7 ar
    14    6   19 1
    15    7    8 1
    16    8    9 1
    17    9   10 1
    18    9   26 1
    19    9   27 1
    20   10   14 2
    21   10   11 1
    22   11   12 2
    23   11   18 1
    24   12   13 1
    25   12   41 1
    26   13   14 1
    27   13   17 1
    28   14   15 1
    29   15   16 1
    30   15   28 1
    31   16   29 1
    32   16   30 1
    33   16   31 1
    34   17   32 1
    35   17   33 1
    36   17   34 1
    37   18   35 1
    38   18   36 1
    39   18   37 1
    40   19   38 1
    41   19   39 1
    42   19   40 1
@<TRIPOS>MOLECULE
ZINC51518565
   45    46     0     0     0
SMALL
USER_CHARGES

@<TRIPOS>ATOM
      1 C1          0.6361   -0.3180   -1.3653 C.3       1 <0>        -0.1545
      2 C2         -0.0124    0.0331   -0.0247 C.3       1 <0>        -0.1266
      3 C3         -1.4795   -0.4007   -0.0387 C.3       1 <0>         0.1394
      4 H1         -1.9818    0.0316   -0.9042 H         1 <0>         0.0819
      5 C4         -1.5653   -1.9299   -0.1025 C.3       1 <0>         0.0529
      6 O1         -2.9258   -2.3327    0.0719 O.3       1 <0>        -0.3718
      7 C5         -3.4830   -1.9790    1.3401 C.3       1 <0>         0.0746
      8 H2         -2.8779   -2.4114    2.1370 H         1 <0>         0.0592
      9 C6         -3.4955   -0.4523    1.4777 C.3       1 <0>         0.1166
     10 N1         -2.1417    0.0510    1.1953 N.pl3     1 <0>        -0.6666
     11 C7         -1.5066    0.9267    2.0692 C.ar      1 <0>         0.4065
     12 C8         -1.7285    2.2954    1.9557 C.ar      1 <0>        -0.1210
     13 C9         -1.0911    3.1553    2.8314 C.ar      1 <0>        -0.0503
     14 C10        -0.2489    2.6151    3.7959 C.ar      1 <0>        -0.0786
     15 C11        -0.0748    1.2460    3.8511 C.ar      1 <0>         0.0767
     16 N2         -0.7006    0.4497    3.0049 N.ar      1 <0>        -0.4623
     17 C12         0.8374    0.6536    4.8942 C.3       1 <0>         0.0504
     18 N3          0.0662    0.3606    6.1097 N.4       1 <0>        -0.5076
     19 C13         0.9554   -0.2168    7.1265 C.3       1 <0>        -0.0102
     20 C14         0.1522   -0.5220    8.3924 C.3       1 <0>        -0.1899
     21 Cl1         0.5759    3.6503    4.9192 Cl        1 <0>        -0.0348
     22 C15        -4.9133   -2.5136    1.4369 C.3       1 <0>        -0.1490
     23 H3          1.6490    0.0836   -1.3952 H         1 <0>         0.0627
     24 H4          0.6713   -1.4015   -1.4792 H         1 <0>         0.0620
     25 H5          0.0499    0.1137   -2.1765 H         1 <0>         0.0630
     26 H6          0.5117   -0.4842    0.7790 H         1 <0>         0.0687
     27 H7          0.0468    1.1094    0.1367 H         1 <0>         0.0617
     28 H8         -1.2049   -2.2746   -1.0717 H         1 <0>         0.1063
     29 H9         -0.9532   -2.3621    0.6891 H         1 <0>         0.0543
     30 H10        -4.2013   -0.0252    0.7653 H         1 <0>         0.0743
     31 H11        -3.7852   -0.1775    2.4919 H         1 <0>         0.0769
     32 H12        -2.3895    2.6812    1.1937 H         1 <0>         0.1595
     33 H13        -1.2440    4.2225    2.7669 H         1 <0>         0.1623
     34 H14         1.2767   -0.2677    4.5117 H         1 <0>         0.1542
     35 H15         1.6302    1.3638    5.1293 H         1 <0>         0.1480
     36 H16        -0.3404    1.2135    6.4637 H         1 <0>         0.4252
     37 H17         1.3946   -1.1382    6.7440 H         1 <0>         0.1352
     38 H18         1.7481    0.4934    7.3615 H         1 <0>         0.1340
     39 H19        -0.2871    0.3994    8.7749 H         1 <0>         0.0811
     40 H20        -0.6406   -1.2322    8.1574 H         1 <0>         0.0814
     41 H21         0.8119   -0.9504    9.1469 H         1 <0>         0.1101
     42 H22        -4.9032   -3.5988    1.3348 H         1 <0>         0.0709
     43 H23        -5.3374   -2.2436    2.4040 H         1 <0>         0.0724
     44 H24        -5.5181   -2.0794    0.6409 H         1 <0>         0.0693
     45 H25        -0.6676   -0.2968    5.8921 H         1 <0>         0.4315
@<TRIPOS>BOND
     1    1    2 1
     2    1   23 1
     3    1   24 1
     4    1   25 1
     5    2    3 1
     6    2   26 1
     7    2   27 1
     8    3    4 1
     9    3   10 1
    10    3    5 1
    11    5    6 1
    12    5   28 1
    13    5   29 1
    14    6    7 1
    15    7    8 1
    16    7    9 1
    17    7   22 1
    18    9   10 1
    19    9   30 1
    20    9   31 1
    21   10   11 1
    22   11   16 ar
    23   11   12 ar
    24   12   13 ar
    25   12   32 1
    26   13   14 ar
    27   13   33 1
    28   14   15 ar
    29   14   21 1
    30   15   16 ar
    31   15   17 1
    32   17   18 1
    33   17   34 1
    34   17   35 1
    35   18   19 1
    36   18   36 1
    37   18   45 1
    38   19   20 1
    39   19   37 1
    40   19   38 1
    41   20   39 1
    42   20   40 1
    43   20   41 1
    44   22   42 1
    45   22   43 1
    46   22   44 1
@<TRIPOS>MOLECULE
ZINC57930409
   49    50     0     0     0
SMALL
USER_CHARGES

@<TRIPOS>ATOM
      1 C1         -0.0184    1.5028    0.0103 C.3       1 <0>        -0.1234
      2 C2          0.0021   -0.0041    0.0020 C.ar      1 <0>        -0.0522
      3 C3          0.0057   -0.6876   -1.2015 C.ar      1 <0>        -0.1359
      4 C4          0.0255   -2.0704   -1.2049 C.ar      1 <0>         0.1800
      5 C5          0.0445   -2.7755    0.0004 C.ar      1 <0>         0.0793
      6 C6          0.0381   -2.0831    1.1999 C.ar      1 <0>        -0.1208
      7 C7          0.0229   -0.6997    1.1964 C.ar      1 <0>        -0.0942
      8 C8          0.0232    0.0529    2.5021 C.3       1 <0>        -0.1154
      9 N1          0.0761   -4.1750   -0.0187 N.am      1 <0>        -0.5374
     10 C9         -0.1975   -4.8532   -1.1493 C.2       1 <0>         0.5171
     11 O1         -0.1226   -6.0639   -1.1550 O.2       1 <0>        -0.5126
     12 C10        -0.5963   -4.1257   -2.4077 C.3       1 <0>         0.1528
     13 H1         -0.2537   -4.6865   -3.2773 H         1 <0>         0.1261
     14 N2          0.0234   -2.7917   -2.4070 N.pl3     1 <0>        -0.7482
     15 C11        -2.1191   -3.9850   -2.4569 C.3       1 <0>        -0.1022
     16 C12        -2.5220   -3.2464   -3.7348 C.3       1 <0>        -0.1445
     17 C13        -2.7601   -5.3742   -2.4471 C.3       1 <0>        -0.1515
     18 C14         0.4099   -4.9093    1.2043 C.3       1 <0>         0.0826
     19 C15        -0.8704   -5.2013    1.9894 C.3       1 <0>        -0.0330
     20 N3         -0.5357   -5.9376    3.2157 N.4       1 <0>        -0.3830
     21 C16         0.2728   -5.0825    4.0950 C.3       1 <0>        -0.0565
     22 C17        -1.7724   -6.3223    3.9088 C.3       1 <0>        -0.0466
     23 H2          1.0042    1.8801    0.0026 H         1 <0>         0.0774
     24 H3         -0.5455    1.8639   -0.8728 H         1 <0>         0.0716
     25 H4         -0.5286    1.8543    0.9071 H         1 <0>         0.0735
     26 H5         -0.0073   -0.1433   -2.1343 H         1 <0>         0.1355
     27 H6          0.0494   -2.6219    2.1358 H         1 <0>         0.1177
     28 H7         -1.0043    0.2191    2.8258 H         1 <0>         0.0718
     29 H8          0.5523   -0.5290    3.2567 H         1 <0>         0.0627
     30 H9          0.5217    1.0129    2.3679 H         1 <0>         0.0749
     31 H10         0.4175   -2.4224   -3.2128 H         1 <0>         0.4163
     32 H11        -2.4601   -3.4214   -1.5885 H         1 <0>         0.0733
     33 H12        -2.1809   -3.8101   -4.6031 H         1 <0>         0.0607
     34 H13        -3.6068   -3.1462   -3.7698 H         1 <0>         0.0642
     35 H14        -2.0653   -2.2567   -3.7418 H         1 <0>         0.0619
     36 H15        -2.4731   -5.9004   -1.5367 H         1 <0>         0.0523
     37 H16        -3.8450   -5.2740   -2.4821 H         1 <0>         0.0655
     38 H17        -2.4191   -5.9379   -3.3155 H         1 <0>         0.0658
     39 H18         0.8979   -5.8482    0.9426 H         1 <0>         0.1134
     40 H19         1.0825   -4.3086    1.8166 H         1 <0>         0.1074
     41 H20        -1.3583   -4.2624    2.2510 H         1 <0>         0.1349
     42 H21        -1.5430   -5.8020    1.3771 H         1 <0>         0.1354
     43 H22         1.1904   -4.7970    3.5806 H         1 <0>         0.1236
     44 H23        -0.2933   -4.1872    4.3518 H         1 <0>         0.1246
     45 H24         0.5212   -5.6288    5.0049 H         1 <0>         0.1301
     46 H25        -2.3723   -6.9568    3.2564 H         1 <0>         0.1243
     47 H26        -1.5240   -6.8686    4.8188 H         1 <0>         0.1282
     48 H27        -2.3385   -5.4269    4.1657 H         1 <0>         0.1229
     49 H28        -0.0116   -6.7664    2.9779 H         1 <0>         0.4300
@<TRIPOS>BOND
     1    1    2 1
     2    1   23 1
     3    1   24 1
     4    1   25 1
     5    2    7 ar
     6    2    3 ar
     7    3    4 ar
     8    3   26 1
     9    4   14 1
    10    4    5 ar
    11    5    6 ar
    12    5    9 1
    13    6    7 ar
    14    6   27 1
    15    7    8 1
    16    8   28 1
    17    8   29 1
    18    8   30 1
    19    9   10 am
    20    9   18 1
    21   10   11 2
    22   10   12 1
    23   12   13 1
    24   12   14 1
    25   12   15 1
    26   14   31 1
    27   15   16 1
    28   15   17 1
    29   15   32 1
    30   16   33 1
    31   16   34 1
    32   16   35 1
    33   17   36 1
    34   17   37 1
    35   17   38 1
    36   18   19 1
    37   18   39 1
    38   18   40 1
    39   19   20 1
    40   19   41 1
    41   19   42 1
    42   20   21 1
    43   20   22 1
    44   20   49 1
    45   21   43 1
    46   21   44 1
    47   21   45 1
    48   22   46 1
    49   22   47 1
    50   22   48 1
@<TRIPOS>MOLECULE
ZINC36170711
   42    43     0     0     0
SMALL
USER_CHARGES

@<TRIPOS>ATOM
      1 C1         -0.8198    2.3837   -0.2519 C.3       1 <0>        -0.1874
      2 C2         -0.4894    0.9028   -0.4489 C.3       1 <0>         0.0252
      3 C3          0.5415    0.4671    0.5944 C.3       1 <0>        -0.1870
      4 N1         -1.7120    0.1034   -0.2928 N.4       1 <0>        -0.3878
      5 C4         -2.7021    0.5231   -1.2933 C.3       1 <0>        -0.0086
      6 C5         -3.9826   -0.2964   -1.1189 C.3       1 <0>         0.0263
      7 N2         -3.6729   -1.7241   -1.2800 N.3       1 <0>        -0.5409
      8 C6         -2.6641   -2.1530   -0.3009 C.3       1 <0>        -0.0059
      9 C7         -1.3945   -1.3182   -0.4819 C.3       1 <0>        -0.0052
     10 C8         -4.8889   -2.5417   -1.1756 C.3       1 <0>         0.1591
     11 H1         -5.5609   -2.3001   -1.9990 H         1 <0>         0.1458
     12 C9         -4.5142   -4.0236   -1.2411 C.3       1 <0>        -0.0094
     13 N3         -3.7395   -4.2793   -2.4627 N.4       1 <0>        -0.6332
     14 C10        -5.5762   -2.2547    0.1345 C.2       1 <0>        -0.2563
     15 C11        -6.8784   -1.9620    0.3685 C.2       1 <0>        -0.0694
     16 C12        -7.2913   -1.7324    1.6680 C.2       1 <0>        -0.1561
     17 C13        -6.3797   -1.8071    2.6699 C.2       1 <0>        -0.0800
     18 S1         -4.8874   -2.2200    1.7811 S.3       1 <0>         0.0792
     19 Cl1        -6.6068   -1.5698    4.3745 Cl        1 <0>         0.0546
     20 H2          0.0873    2.9768   -0.3677 H         1 <0>         0.1119
     21 H3         -1.5542    2.6941   -0.9951 H         1 <0>         0.0829
     22 H4         -1.2278    2.5351    0.7475 H         1 <0>         0.0831
     23 H5         -0.0814    0.7514   -1.4482 H         1 <0>         0.1404
     24 H6          0.1334    0.6185    1.5937 H         1 <0>         0.0832
     25 H7          0.7768   -0.5879    0.4540 H         1 <0>         0.0807
     26 H8          1.4486    1.0603    0.4785 H         1 <0>         0.1121
     27 H9         -2.9271    1.5813   -1.1601 H         1 <0>         0.1469
     28 H10        -2.2998    0.3602   -2.2931 H         1 <0>         0.1423
     29 H11        -4.3926   -0.1232   -0.1239 H         1 <0>         0.0792
     30 H12        -4.7122    0.0045   -1.8708 H         1 <0>         0.1353
     31 H13        -3.0524   -2.0104    0.7076 H         1 <0>         0.0813
     32 H14        -2.4318   -3.2066   -0.4559 H         1 <0>         0.1185
     33 H15        -0.9989   -1.4717   -1.4860 H         1 <0>         0.1421
     34 H16        -0.6500   -1.6251    0.2527 H         1 <0>         0.1469
     35 H17        -3.9148   -4.2857   -0.3692 H         1 <0>         0.1372
     36 H18        -5.4215   -4.6276   -1.2531 H         1 <0>         0.1581
     37 H19        -3.4925   -5.2567   -2.5059 H         1 <0>         0.4456
     38 H20        -4.2944   -4.0367   -3.2698 H         1 <0>         0.4426
     39 H21        -7.5833   -1.9085   -0.4480 H         1 <0>         0.1522
     40 H22        -8.3233   -1.4968    1.8821 H         1 <0>         0.1585
     41 H23        -2.8996   -3.7203   -2.4516 H         1 <0>         0.4337
     42 H24        -2.0892    0.2433    0.6325 H         1 <0>         0.4223
@<TRIPOS>BOND
     1    1    2 1
     2    1   20 1
     3    1   21 1
     4    1   22 1
     5    2    3 1
     6    2    4 1
     7    2   23 1
     8    3   24 1
     9    3   25 1
    10    3   26 1
    11    4    9 1
    12    4    5 1
    13    4   42 1
    14    5    6 1
    15    5   27 1
    16    5   28 1
    17    6    7 1
    18    6   29 1
    19    6   30 1
    20    7    8 1
    21    7   10 1
    22    8    9 1
    23    8   31 1
    24    8   32 1
    25    9   33 1
    26    9   34 1
    27   10   11 1
    28   10   12 1
    29   10   14 1
    30   12   13 1
    31   12   35 1
    32   12   36 1
    33   13   37 1
    34   13   38 1
    35   13   41 1
    36   14   18 1
    37   14   15 2
    38   15   16 1
    39   15   39 1
    40   16   17 2
    41   16   40 1
    42   17   18 1
    43   17   19 1
@<TRIPOS>MOLECULE
ZINC43253447
   46    48     0     0     0
SMALL
USER_CHARGES

@<TRIPOS>ATOM
      1 C1          0.0586    1.3244    2.8510 C.3       1 <0>        -0.1762
      2 C2          0.0256   -0.1980    2.7023 C.3       1 <0>        -0.1491
      3 C3          0.5719   -0.5880    1.3274 C.3       1 <0>         0.0288
      4 H1          1.5658   -0.1600    1.1965 H         1 <0>         0.1521
      5 C4          0.6556   -2.1123    1.2256 C.3       1 <0>         0.1699
      6 H2          1.1264   -2.3881    0.2819 H         1 <0>         0.0988
      7 C5         -0.7322   -2.6967    1.2842 C.2       1 <0>        -0.2554
      8 C6         -1.5166   -3.1357    0.2702 C.2       1 <0>        -0.1010
      9 C7         -2.7710   -3.6390    0.5620 C.2       1 <0>        -0.1635
     10 C8         -3.1786   -3.6782    1.8553 C.2       1 <0>        -0.0903
     11 S1         -1.7659   -2.9973    2.7084 S.3       1 <0>         0.1626
     12 Cl1        -4.6812   -4.2489    2.5112 Cl        1 <0>         0.0563
     13 N1          1.4544   -2.6345    2.3423 N.3       1 <0>        -0.5275
     14 C9          2.8066   -2.0587    2.3372 C.3       1 <0>         0.0139
     15 C10         3.5848   -2.5810    3.5469 C.3       1 <0>         0.0035
     16 N2          3.6580   -4.0468    3.4865 N.4       1 <0>        -0.3589
     17 C11         2.3010   -4.6082    3.5173 C.3       1 <0>        -0.0015
     18 C12         1.5122   -4.1027    2.3073 C.3       1 <0>         0.0253
     19 C13         4.4206   -4.5465    4.6383 C.3       1 <0>        -0.0868
     20 C14         5.7902   -5.1700    4.3621 C.3       1 <0>        -0.1500
     21 C15         4.6101   -6.0601    4.7571 C.3       1 <0>        -0.1526
     22 N3         -0.3234   -0.0759    0.2814 N.4       1 <0>        -0.6346
     23 H3         -0.5557    1.7788    2.0737 H         1 <0>         0.0545
     24 H4         -0.3306    1.6023    3.8305 H         1 <0>         0.0883
     25 H5          1.0856    1.6767    2.7548 H         1 <0>         0.0722
     26 H6          0.6399   -0.6524    3.4796 H         1 <0>         0.1221
     27 H7         -1.0014   -0.5503    2.7985 H         1 <0>         0.0942
     28 H8         -1.1674   -3.0927   -0.7509 H         1 <0>         0.1473
     29 H9         -3.4163   -3.9951   -0.2274 H         1 <0>         0.1568
     30 H10         3.3216   -2.3478    1.4211 H         1 <0>         0.0735
     31 H11         2.7394   -0.9720    2.3896 H         1 <0>         0.1271
     32 H12         4.5928   -2.1662    3.5372 H         1 <0>         0.1436
     33 H13         3.0769   -2.2800    4.4632 H         1 <0>         0.1418
     34 H14         2.3572   -5.6963    3.4856 H         1 <0>         0.1409
     35 H15         1.7997   -4.2968    4.4337 H         1 <0>         0.1433
     36 H16         0.5005   -4.5073    2.3379 H         1 <0>         0.1299
     37 H17         2.0058   -4.4255    1.3907 H         1 <0>         0.0717
     38 H18         4.3022   -3.9801    5.5621 H         1 <0>         0.1790
     39 H19         6.1254   -5.2094    3.3256 H         1 <0>         0.1201
     40 H20         6.5732   -5.0138    5.1040 H         1 <0>         0.1375
     41 H21         4.6168   -6.4894    5.7590 H         1 <0>         0.1374
     42 H22         4.1690   -6.6850    3.9806 H         1 <0>         0.1193
     43 H23        -0.2908    0.9326    0.2749 H         1 <0>         0.4443
     44 H24        -0.0274   -0.4277   -0.6167 H         1 <0>         0.4365
     45 H25        -1.2671   -0.3806    0.4676 H         1 <0>         0.4363
     46 H26         4.1178   -4.3255    2.6327 H         1 <0>         0.4185
@<TRIPOS>BOND
     1    1    2 1
     2    1   23 1
     3    1   24 1
     4    1   25 1
     5    2    3 1
     6    2   26 1
     7    2   27 1
     8    3    4 1
     9    3    5 1
    10    3   22 1
    11    5    6 1
    12    5    7 1
    13    5   13 1
    14    7   11 1
    15    7    8 2
    16    8    9 1
    17    8   28 1
    18    9   10 2
    19    9   29 1
    20   10   11 1
    21   10   12 1
    22   13   18 1
    23   13   14 1
    24   14   15 1
    25   14   30 1
    26   14   31 1
    27   15   16 1
    28   15   32 1
    29   15   33 1
    30   16   17 1
    31   16   19 1
    32   16   46 1
    33   17   18 1
    34   17   34 1
    35   17   35 1
    36   18   36 1
    37   18   37 1
    38   19   21 1
    39   19   20 1
    40   19   38 1
    41   20   21 1
    42   20   39 1
    43   20   40 1
    44   21   41 1
    45   21   42 1
    46   22   43 1
    47   22   44 1
    48   22   45 1
@<TRIPOS>MOLECULE
ZINC49609564
   46    47     0     0     0
SMALL
USER_CHARGES

@<TRIPOS>ATOM
      1 C1          0.0176    1.3504    0.1659 C.3       1 <0>        -0.1860
      2 C2          0.0319   -0.1758    0.0587 C.3       1 <0>        -0.0190
      3 N1          0.6050   -0.5703   -1.2351 N.4       1 <0>        -0.3822
      4 C3          0.4969   -2.0266   -1.3948 C.3       1 <0>         0.0352
      5 C4         -0.9568   -2.4175   -1.4668 C.ar      1 <0>        -0.1406
      6 C5         -1.5942   -2.9170   -0.3493 C.ar      1 <0>        -0.0557
      7 C6         -2.9280   -3.2764   -0.4125 C.ar      1 <0>        -0.1234
      8 C7         -3.6333   -3.1377   -1.5974 C.ar      1 <0>         0.1469
      9 C8         -3.0057   -2.6388   -2.7229 C.ar      1 <0>        -0.1204
     10 C9         -1.6616   -2.2696   -2.6618 C.ar      1 <0>         0.0329
     11 C10        -1.0065   -1.7463   -3.8226 C.1       1 <0>        -0.0430
     12 C11        -0.4694   -1.3172   -4.7744 C.1       1 <0>        -0.2148
     13 C12         0.2040   -0.7793   -5.9676 C.3       1 <0>         0.1318
     14 N2         -0.7486   -0.7243   -7.0845 N.4       1 <0>        -0.6389
     15 F1         -4.9361   -3.4913   -1.6523 F         1 <0>        -0.1107
     16 C13         2.0192   -0.1759   -1.2850 C.3       1 <0>        -0.0285
     17 C14         2.5731   -0.4396   -2.6866 C.3       1 <0>         0.0566
     18 H1          2.4099   -1.4825   -2.9584 H         1 <0>         0.1027
     19 C15         4.0828   -0.1192   -2.7220 C.3       1 <0>        -0.1487
     20 C16         4.2454    0.5492   -4.1144 C.3       1 <0>        -0.1569
     21 C17         2.8907    1.2898   -4.2451 C.3       1 <0>         0.0464
     22 O1          1.9247    0.4167   -3.6343 O.3       1 <0>        -0.3948
     23 H2          1.0416    1.7210    0.2126 H         1 <0>         0.0820
     24 H3         -0.4817    1.7713   -0.7068 H         1 <0>         0.0772
     25 H4         -0.5173    1.6462    1.0684 H         1 <0>         0.1110
     26 H5          0.6359   -0.5910    0.8654 H         1 <0>         0.1360
     27 H6         -0.9871   -0.5550    0.1355 H         1 <0>         0.1307
     28 H7          1.0005   -2.3299   -2.3127 H         1 <0>         0.1360
     29 H8          0.9644   -2.5212   -0.5434 H         1 <0>         0.1486
     30 H9         -1.0498   -3.0277    0.5768 H         1 <0>         0.1571
     31 H10        -3.4219   -3.6671    0.4649 H         1 <0>         0.1627
     32 H11        -3.5554   -2.5311   -3.6463 H         1 <0>         0.1540
     33 H12         0.5732    0.2240   -5.7552 H         1 <0>         0.1600
     34 H13         1.0404   -1.4252   -6.2350 H         1 <0>         0.1587
     35 H14        -1.0904   -1.6531   -7.2812 H         1 <0>         0.4418
     36 H15        -1.5229   -0.1264   -6.8370 H         1 <0>         0.4408
     37 H16         2.1089    0.8852   -1.0525 H         1 <0>         0.1423
     38 H17         2.5843   -0.7566   -0.5558 H         1 <0>         0.1454
     39 H18         4.3509    0.5745   -1.9250 H         1 <0>         0.0930
     40 H19         4.6748   -1.0322   -2.6585 H         1 <0>         0.1018
     41 H20         5.0790    1.2515   -4.1181 H         1 <0>         0.1009
     42 H21         4.3612   -0.1993   -4.8983 H         1 <0>         0.0868
     43 H22         2.9279    2.2425   -3.7168 H         1 <0>         0.0768
     44 H23         2.6458    1.4480   -5.2954 H         1 <0>         0.0961
     45 H24         0.1015   -0.1120   -1.9798 H         1 <0>         0.4217
     46 H25        -0.2870   -0.3556   -7.9025 H         1 <0>         0.4498
@<TRIPOS>BOND
     1    1    2 1
     2    1   23 1
     3    1   24 1
     4    1   25 1
     5    2    3 1
     6    2   26 1
     7    2   27 1
     8    3    4 1
     9    3   16 1
    10    3   45 1
    11    4    5 1
    12    4   28 1
    13    4   29 1
    14    5   10 ar
    15    5    6 ar
    16    6    7 ar
    17    6   30 1
    18    7    8 ar
    19    7   31 1
    20    8    9 ar
    21    8   15 1
    22    9   10 ar
    23    9   32 1
    24   10   11 1
    25   11   12 3
    26   12   13 1
    27   13   14 1
    28   13   33 1
    29   13   34 1
    30   14   35 1
    31   14   36 1
    32   14   46 1
    33   16   17 1
    34   16   37 1
    35   16   38 1
    36   17   18 1
    37   17   22 1
    38   17   19 1
    39   19   20 1
    40   19   39 1
    41   19   40 1
    42   20   21 1
    43   20   41 1
    44   20   42 1
    45   21   22 1
    46   21   43 1
    47   21   44 1
@<TRIPOS>MOLECULE
ZINC53860603
   59    60     0     0     0
SMALL
USER_CHARGES

@<TRIPOS>ATOM
      1 C1          0.4592    1.2608    0.0860 C.3       1 <0>        -0.1926
      2 C2          0.3460   -0.2633    0.0139 C.3       1 <0>        -0.0162
      3 N1         -1.0689   -0.6529    0.0796 N.4       1 <0>        -0.5073
      4 C3         -1.1776   -2.1163    0.0104 C.3       1 <0>         0.0167
      5 H1         -0.6686   -2.4765   -0.8836 H         1 <0>         0.1311
      6 C4         -0.5294   -2.7350    1.2506 C.3       1 <0>        -0.1529
      7 C5         -1.2439   -2.2293    2.5054 C.3       1 <0>        -0.1422
      8 C6         -2.7196   -2.6290    2.4481 C.3       1 <0>        -0.0875
      9 H2         -2.8003   -3.7148    2.3968 H         1 <0>         0.0872
     10 C7         -3.3678   -2.0102    1.2080 C.3       1 <0>        -0.1329
     11 C8         -2.6533   -2.5159   -0.0469 C.3       1 <0>        -0.1338
     12 H3         -3.1151   -2.0751   -0.9304 H         1 <0>         0.1209
     13 C9         -2.7665   -4.0400   -0.1190 C.3       1 <0>        -0.0100
     14 N2         -2.1866   -4.5150   -1.3823 N.4       1 <0>        -0.3899
     15 C10        -2.9936   -4.0223   -2.5051 C.3       1 <0>        -0.0106
     16 C11        -2.3485   -4.4461   -3.8264 C.3       1 <0>        -0.1443
     17 C12        -2.2711   -5.9745   -3.8833 C.3       1 <0>         0.0950
     18 C13        -1.4905   -6.4818   -2.6673 C.3       1 <0>        -0.1853
     19 C14        -2.1674   -5.9826   -1.3890 C.3       1 <0>        -0.0049
     20 O1         -1.6028   -6.3749   -5.0812 O.3       1 <0>        -0.5516
     21 C15        -3.4341   -2.1232    3.7030 C.3       1 <0>        -0.0607
     22 C16        -3.3209   -0.5991    3.7751 C.3       1 <0>        -0.1568
     23 C17        -4.9098   -2.5229    3.6457 C.3       1 <0>        -0.1523
     24 C18        -2.7859   -2.7420    4.9432 C.3       1 <0>        -0.1527
     25 H4          1.5090    1.5498    0.0373 H         1 <0>         0.1148
     26 H5         -0.0792    1.7051   -0.7512 H         1 <0>         0.0843
     27 H6          0.0284    1.6132    1.0232 H         1 <0>         0.0838
     28 H7          0.7768   -0.6158   -0.9232 H         1 <0>         0.1346
     29 H8          0.8844   -0.7076    0.8511 H         1 <0>         0.1364
     30 H9         -1.4677   -0.3267    0.9471 H         1 <0>         0.4308
     31 H10        -0.6101   -3.8208    1.1992 H         1 <0>         0.1077
     32 H11         0.5219   -2.4503    1.2914 H         1 <0>         0.1060
     33 H12        -0.7821   -2.6701    3.3890 H         1 <0>         0.1081
     34 H13        -1.1632   -1.1435    2.5568 H         1 <0>         0.0702
     35 H14        -4.4191   -2.2950    1.1671 H         1 <0>         0.1110
     36 H15        -3.2871   -0.9244    1.2593 H         1 <0>         0.0842
     37 H16        -2.2276   -4.4844    0.7179 H         1 <0>         0.1474
     38 H17        -3.8163   -4.3292   -0.0697 H         1 <0>         0.1542
     39 H18        -3.9981   -4.4406   -2.4411 H         1 <0>         0.1410
     40 H19        -3.0504   -2.9347   -2.4614 H         1 <0>         0.1324
     41 H20        -2.9502   -4.0809   -4.6588 H         1 <0>         0.1250
     42 H21        -1.3440   -4.0281   -3.8916 H         1 <0>         0.0946
     43 H22        -3.2782   -6.3912   -3.8697 H         1 <0>         0.0768
     44 H23        -1.4788   -7.5718   -2.6712 H         1 <0>         0.1217
     45 H24        -0.4682   -6.1061   -2.7085 H         1 <0>         0.0968
     46 H25        -1.6142   -6.3422   -0.5213 H         1 <0>         0.1377
     47 H26        -3.1895   -6.3591   -1.3487 H         1 <0>         0.1383
     48 H27        -1.5180   -7.3328   -5.1830 H         1 <0>         0.3997
     49 H28        -3.7826   -0.1583    2.8916 H         1 <0>         0.0544
     50 H29        -3.8298   -0.2389    4.6691 H         1 <0>         0.0710
     51 H30        -2.2695   -0.3144    3.8159 H         1 <0>         0.0562
     52 H31        -4.9905   -3.6087    3.5944 H         1 <0>         0.0592
     53 H32        -5.4188   -2.1626    4.5397 H         1 <0>         0.0681
     54 H33        -5.3716   -2.0821    2.7622 H         1 <0>         0.0567
     55 H34        -1.7345   -2.4572    4.9840 H         1 <0>         0.0590
     56 H35        -3.2949   -2.3817    5.8372 H         1 <0>         0.0675
     57 H36        -2.8665   -3.8278    4.8918 H         1 <0>         0.0597
     58 H37        -1.5673   -0.2417   -0.6954 H         1 <0>         0.4300
     59 H38        -1.2437   -4.1668   -1.4703 H         1 <0>         0.4143
@<TRIPOS>BOND
     1    1    2 1
     2    1   25 1
     3    1   26 1
     4    1   27 1
     5    2    3 1
     6    2   28 1
     7    2   29 1
     8    3    4 1
     9    3   30 1
    10    3   58 1
    11    4    5 1
    12    4   11 1
    13    4    6 1
    14    6    7 1
    15    6   31 1
    16    6   32 1
    17    7    8 1
    18    7   33 1
    19    7   34 1
    20    8    9 1
    21    8   10 1
    22    8   21 1
    23   10   11 1
    24   10   35 1
    25   10   36 1
    26   11   12 1
    27   11   13 1
    28   13   14 1
    29   13   37 1
    30   13   38 1
    31   14   19 1
    32   14   15 1
    33   14   59 1
    34   15   16 1
    35   15   39 1
    36   15   40 1
    37   16   17 1
    38   16   41 1
    39   16   42 1
    40   17   18 1
    41   17   20 1
    42   17   43 1
    43   18   19 1
    44   18   44 1
    45   18   45 1
    46   19   46 1
    47   19   47 1
    48   20   48 1
    49   21   22 1
    50   21   23 1
    51   21   24 1
    52   22   49 1
    53   22   50 1
    54   22   51 1
    55   23   52 1
    56   23   53 1
    57   23   54 1
    58   24   55 1
    59   24   56 1
    60   24   57 1
@<TRIPOS>MOLECULE
ZINC61645992
   42    43     0     0     0
SMALL
USER_CHARGES

@<TRIPOS>ATOM
      1 C1         -0.9682    0.0465    0.0368 C.3       1 <0>        -0.0579
      2 N1         -0.1891   -1.1652    0.3242 N.4       1 <0>        -0.3984
      3 C2         -1.0954   -2.2414    0.7465 C.3       1 <0>        -0.0553
      4 C3          0.5343   -1.5805   -0.8850 C.3       1 <0>        -0.0316
      5 C4          1.6058   -0.5411   -1.2205 C.3       1 <0>         0.1295
      6 H1          1.1485    0.4432   -1.3212 H         1 <0>         0.0980
      7 C5          2.3173   -0.9262   -2.5347 C.3       1 <0>        -0.1243
      8 C6          3.7948   -0.5443   -2.2548 C.3       1 <0>        -0.1304
      9 C7          3.9258   -0.8901   -0.7504 C.3       1 <0>         0.1111
     10 N2          2.6245   -0.5132   -0.1608 N.pl3     1 <0>        -0.6922
     11 C8          2.3979   -0.1851    1.1778 C.ar      1 <0>         0.1767
     12 C9          2.2668    1.1452    1.5558 C.ar      1 <0>        -0.0957
     13 C10         2.0422    1.4661    2.8808 C.ar      1 <0>        -0.0489
     14 C11         1.9484    0.4637    3.8305 C.ar      1 <0>        -0.0803
     15 C12         2.0785   -0.8609    3.4568 C.ar      1 <0>        -0.0603
     16 C13         2.2974   -1.1886    2.1329 C.ar      1 <0>        -0.2071
     17 C14         2.4329   -2.6332    1.7260 C.3       1 <0>         0.0420
     18 N3          3.8551   -2.9670    1.5709 N.4       1 <0>        -0.6405
     19 Br1         1.8635    3.2764    3.3972 Br        1 <0>         0.0172
     20 H2         -0.2957    0.8451   -0.2765 H         1 <0>         0.1222
     21 H3         -1.6820   -0.1610   -0.7603 H         1 <0>         0.1340
     22 H4         -1.5050    0.3547    0.9340 H         1 <0>         0.1291
     23 H5         -1.8092   -2.4490   -0.0507 H         1 <0>         0.1332
     24 H6         -0.5173   -3.1405    0.9597 H         1 <0>         0.1177
     25 H7         -1.6321   -1.9333    1.6437 H         1 <0>         0.1302
     26 H8          1.0074   -2.5470   -0.7114 H         1 <0>         0.1258
     27 H9         -0.1653   -1.6626   -1.7168 H         1 <0>         0.1503
     28 H10         2.2247   -1.9956   -2.7244 H         1 <0>         0.0895
     29 H11         1.9217   -0.3495   -3.3708 H         1 <0>         0.1060
     30 H12         4.4750   -1.1485   -2.8552 H         1 <0>         0.1023
     31 H13         3.9631    0.5187   -2.4274 H         1 <0>         0.0941
     32 H14         4.1075   -1.9570   -0.6208 H         1 <0>         0.0435
     33 H15         4.7289   -0.3097   -0.2963 H         1 <0>         0.0891
     34 H16         2.3407    1.9276    0.8150 H         1 <0>         0.1567
     35 H17         1.7735    0.7169    4.8657 H         1 <0>         0.1609
     36 H18         2.0048   -1.6407    4.2003 H         1 <0>         0.1585
     37 H19         1.9919   -3.2697    2.4932 H         1 <0>         0.1542
     38 H20         1.9167   -2.7941    0.7796 H         1 <0>         0.1231
     39 H21         4.2912   -2.3009    0.9510 H         1 <0>         0.4297
     40 H22         4.3083   -2.9348    2.4718 H         1 <0>         0.4434
     41 H23         3.9426   -3.8945    1.1833 H         1 <0>         0.4436
     42 H24         0.4717   -0.9731    1.0621 H         1 <0>         0.4114
@<TRIPOS>BOND
     1    1    2 1
     2    1   20 1
     3    1   21 1
     4    1   22 1
     5    2    3 1
     6    2    4 1
     7    2   42 1
     8    3   23 1
     9    3   24 1
    10    3   25 1
    11    4    5 1
    12    4   26 1
    13    4   27 1
    14    5    6 1
    15    5   10 1
    16    5    7 1
    17    7    8 1
    18    7   28 1
    19    7   29 1
    20    8    9 1
    21    8   30 1
    22    8   31 1
    23    9   10 1
    24    9   32 1
    25    9   33 1
    26   10   11 1
    27   11   16 ar
    28   11   12 ar
    29   12   13 ar
    30   12   34 1
    31   13   14 ar
    32   13   19 1
    33   14   15 ar
    34   14   35 1
    35   15   16 ar
    36   15   36 1
    37   16   17 1
    38   17   18 1
    39   17   37 1
    40   17   38 1
    41   18   39 1
    42   18   40 1
    43   18   41 1
@<TRIPOS>MOLECULE
ZINC14220414
   54    54     0     0     0
SMALL
USER_CHARGES
(2S)-N-(isobutylcarbamoyl)-2-[methyl-[2-oxo-2-(p-tolylamino)ethyl]amino]propanamide
@<TRIPOS>ATOM
      1 C1          5.1799    3.8337    0.9465 C.3       1 <0>        -0.1221
      2 C2          5.0433    2.4253    0.4278 C.ar      1 <0>        -0.0795
      3 C3          5.4746    1.3614    1.1986 C.ar      1 <0>        -0.1023
      4 C4          5.3509    0.0695    0.7261 C.ar      1 <0>        -0.1092
      5 C5          4.7926   -0.1604   -0.5245 C.ar      1 <0>         0.1121
      6 C6          4.3605    0.9103   -1.2961 C.ar      1 <0>        -0.1268
      7 C7          4.4871    2.1998   -0.8179 C.ar      1 <0>        -0.1005
      8 N1          4.6662   -1.4680   -1.0063 N.am      1 <0>        -0.6422
      9 C8          4.4450   -2.4837   -0.1485 C.2       1 <0>         0.5072
     10 O1          4.2588   -2.2545    1.0278 O.2       1 <0>        -0.5130
     11 C9          4.4290   -3.9044   -0.6510 C.3       1 <0>        -0.0371
     12 C10         2.8164   -4.6213    1.0067 C.3       1 <0>        -0.0529
     13 C11         4.3800   -6.2153    0.0701 C.3       1 <0>         0.0098
     14 H1          3.9841   -6.8771    0.8404 H         1 <0>         0.1736
     15 C12         3.6573   -6.4816   -1.2518 C.3       1 <0>        -0.1809
     16 C13         5.8549   -6.4718   -0.1031 C.2       1 <0>         0.5132
     17 O2          6.6303   -5.5412   -0.1525 O.2       1 <0>        -0.4522
     18 N2          6.3118   -7.7358   -0.2031 N.am      1 <0>        -0.6743
     19 C14         7.6308   -7.9652   -0.3580 C.2       1 <0>         0.6906
     20 O3          8.4082   -7.0322   -0.4075 O.2       1 <0>        -0.5161
     21 N3          8.0878   -9.2292   -0.4580 N.am      1 <0>        -0.7245
     22 C15         9.5216   -9.4785   -0.6264 C.3       1 <0>         0.1344
     23 C16         9.7704  -10.9857   -0.7129 C.3       1 <0>        -0.1079
     24 C17         9.1119  -11.5395   -1.9780 C.3       1 <0>        -0.1516
     25 C18        11.2762  -11.2519   -0.7634 C.3       1 <0>        -0.1492
     26 H2          6.1445    4.2406    0.6432 H         1 <0>         0.0768
     27 H3          4.3802    4.4508    0.5369 H         1 <0>         0.0713
     28 H4          5.1137    3.8282    2.0345 H         1 <0>         0.0707
     29 H5          5.9046    1.5405    2.1730 H         1 <0>         0.1311
     30 H6          5.6882   -0.7610    1.3285 H         1 <0>         0.1334
     31 H7          3.9262    0.7348   -2.2693 H         1 <0>         0.1297
     32 H8          4.1509    3.0329   -1.4174 H         1 <0>         0.1334
     33 H9          4.7379   -1.6434   -1.9576 H         1 <0>         0.4192
     34 H10         3.6445   -4.0162   -1.3995 H         1 <0>         0.1645
     35 H11         5.3942   -4.1426   -1.0979 H         1 <0>         0.1714
     36 H12         2.0897   -4.7030    0.1984 H         1 <0>         0.1258
     37 H13         2.6100   -5.3825    1.7591 H         1 <0>         0.1291
     38 H14         2.7453   -3.6330    1.4608 H         1 <0>         0.1442
     39 H15         4.0532   -5.8198   -2.0221 H         1 <0>         0.0914
     40 H16         3.8133   -7.5188   -1.5486 H         1 <0>         0.1146
     41 H17         2.5905   -6.2961   -1.1266 H         1 <0>         0.1045
     42 H18         5.6914   -8.4803   -0.1636 H         1 <0>         0.4183
     43 H19         7.4674   -9.9737   -0.4185 H         1 <0>         0.4024
     44 H20         9.8685   -8.9999   -1.5422 H         1 <0>         0.0764
     45 H21        10.0641   -9.0690    0.2257 H         1 <0>         0.0760
     46 H22         9.3440  -11.4752    0.1627 H         1 <0>         0.0795
     47 H23         9.5383  -11.0501   -2.8537 H         1 <0>         0.0604
     48 H24         9.2892  -12.6133   -2.0397 H         1 <0>         0.0642
     49 H25         8.0391  -11.3499   -1.9421 H         1 <0>         0.0505
     50 H26        11.7453  -10.8574    0.1379 H         1 <0>         0.0611
     51 H27        11.4535  -12.3257   -0.8250 H         1 <0>         0.0664
     52 H28        11.7026  -10.7625   -1.6390 H         1 <0>         0.0614
     53 N4          4.1885   -4.8114    0.4910 N.4       1 <0>        -0.3694
     54 H29         4.8586   -4.5926    1.2375 H         1 <0>         0.4434
@<TRIPOS>BOND
     1    1    2 1
     2    1   26 1
     3    1   27 1
     4    1   28 1
     5    2    7 ar
     6    2    3 ar
     7    3    4 ar
     8    3   29 1
     9    4    5 ar
    10    4   30 1
    11    5    6 ar
    12    5    8 1
    13    6    7 ar
    14    6   31 1
    15    7   32 1
    16    8    9 am
    17    8   33 1
    18    9   10 2
    19    9   11 1
    20   11   34 1
    21   11   35 1
    22   11   53 1
    23   12   36 1
    24   12   37 1
    25   12   38 1
    26   12   53 1
    27   13   14 1
    28   13   15 1
    29   13   16 1
    30   13   53 1
    31   15   39 1
    32   15   40 1
    33   15   41 1
    34   16   17 2
    35   16   18 am
    36   18   19 am
    37   18   42 1
    38   19   20 2
    39   19   21 am
    40   21   22 1
    41   21   43 1
    42   22   23 1
    43   22   44 1
    44   22   45 1
    45   23   24 1
    46   23   25 1
    47   23   46 1
    48   24   47 1
    49   24   48 1
    50   24   49 1
    51   25   50 1
    52   25   51 1
    53   25   52 1
    54   53   54 1
@<TRIPOS>MOLECULE
ZINC43584902
   52    52     0     0     0
SMALL
USER_CHARGES

@<TRIPOS>ATOM
      1 C1         -0.3262    0.5815    0.4292 C.3       1 <0>        -0.1518
      2 C2          0.1250   -0.8761    0.3162 C.3       1 <0>        -0.0891
      3 C3          0.7628   -1.1015   -1.0305 C.ar      1 <0>        -0.0929
      4 C4          0.0093   -1.5928   -2.0788 C.ar      1 <0>        -0.0996
      5 C5          0.5936   -1.7999   -3.3146 C.ar      1 <0>        -0.1112
      6 C6          1.9336   -1.5156   -3.5056 C.ar      1 <0>        -0.1061
      7 C7          2.6922   -1.0238   -2.4618 C.ar      1 <0>        -0.1118
      8 C8          2.1070   -0.8101   -1.2204 C.ar      1 <0>         0.1167
      9 N1          2.8717   -0.3069   -0.1621 N.am      1 <0>        -0.6401
     10 C9          4.1723   -0.6422   -0.0514 C.2       1 <0>         0.5000
     11 O1          4.7045   -1.3020   -0.9190 O.2       1 <0>        -0.5040
     12 C10         4.9655   -0.1975    1.1503 C.3       1 <0>        -0.0363
     13 N2          6.3458   -0.6869    1.0344 N.4       1 <0>        -0.3598
     14 C11         6.3508   -2.1549    1.0871 C.3       1 <0>        -0.0663
     15 C12         7.1488   -0.1544    2.1433 C.3       1 <0>         0.0056
     16 H1          6.7833   -0.5628    3.0855 H         1 <0>         0.1710
     17 C13         7.0335    1.3710    2.1698 C.3       1 <0>        -0.1867
     18 C14         8.5914   -0.5459    1.9521 C.2       1 <0>         0.5162
     19 O2          8.9631   -0.9894    0.8867 O.2       1 <0>        -0.4444
     20 N3          9.4685   -0.4031    2.9654 N.am      1 <0>        -0.6750
     21 C15        10.7587   -0.7532    2.7944 C.2       1 <0>         0.6911
     22 O3         11.1312   -1.1978    1.7263 O.2       1 <0>        -0.5157
     23 N4         11.6357   -0.6103    3.8077 N.am      1 <0>        -0.7232
     24 C16        13.0381   -0.9910    3.6218 C.3       1 <0>         0.1611
     25 C17        13.8014   -0.7344    4.8957 C.2       1 <0>        -0.1934
     26 C18        14.4821   -1.7024    5.4576 C.2       1 <0>        -0.1461
     27 H2          0.5369    1.2384    0.3214 H         1 <0>         0.0486
     28 H3         -1.0494    0.7999   -0.3564 H         1 <0>         0.0650
     29 H4         -0.7874    0.7445    1.4033 H         1 <0>         0.0660
     30 H5          0.8483   -1.0945    1.1018 H         1 <0>         0.0663
     31 H6         -0.7380   -1.5330    0.4240 H         1 <0>         0.0836
     32 H7         -1.0373   -1.8158   -1.9328 H         1 <0>         0.1328
     33 H8          0.0025   -2.1848   -4.1325 H         1 <0>         0.1311
     34 H9          2.3872   -1.6788   -4.4721 H         1 <0>         0.1315
     35 H10         3.7386   -0.8023   -2.6115 H         1 <0>         0.1398
     36 H11         2.4656    0.2833    0.4918 H         1 <0>         0.4180
     37 H12         4.9691    0.8913    1.2006 H         1 <0>         0.1678
     38 H13         4.5115   -0.6015    2.0551 H         1 <0>         0.1675
     39 H14         5.8272   -2.5515    0.2172 H         1 <0>         0.1488
     40 H15         7.3796   -2.5150    1.0872 H         1 <0>         0.1313
     41 H16         5.8493   -2.4876    1.9959 H         1 <0>         0.1223
     42 H17         7.3990    1.7795    1.2277 H         1 <0>         0.0951
     43 H18         5.9901    1.6542    2.3081 H         1 <0>         0.1031
     44 H19         7.6294    1.7662    2.9926 H         1 <0>         0.1169
     45 H20         9.1711   -0.0482    3.8178 H         1 <0>         0.4179
     46 H21        11.3384   -0.2555    4.6601 H         1 <0>         0.4038
     47 H22        13.0969   -2.0498    3.3700 H         1 <0>         0.0790
     48 H23        13.4708   -0.4008    2.8139 H         1 <0>         0.0835
     49 H24        13.7871    0.2474    5.3453 H         1 <0>         0.1192
     50 H25        15.0291   -1.5186    6.3705 H         1 <0>         0.1097
     51 H26        14.4963   -2.6842    5.0079 H         1 <0>         0.1032
     52 H27         6.7388   -0.3805    0.1571 H         1 <0>         0.4399
@<TRIPOS>BOND
     1    1    2 1
     2    1   27 1
     3    1   28 1
     4    1   29 1
     5    2    3 1
     6    2   30 1
     7    2   31 1
     8    3    8 ar
     9    3    4 ar
    10    4    5 ar
    11    4   32 1
    12    5    6 ar
    13    5   33 1
    14    6    7 ar
    15    6   34 1
    16    7    8 ar
    17    7   35 1
    18    8    9 1
    19    9   10 am
    20    9   36 1
    21   10   11 2
    22   10   12 1
    23   12   13 1
    24   12   37 1
    25   12   38 1
    26   13   14 1
    27   13   15 1
    28   13   52 1
    29   14   39 1
    30   14   40 1
    31   14   41 1
    32   15   16 1
    33   15   17 1
    34   15   18 1
    35   17   42 1
    36   17   43 1
    37   17   44 1
    38   18   19 2
    39   18   20 am
    40   20   21 am
    41   20   45 1
    42   21   22 2
    43   21   23 am
    44   23   24 1
    45   23   46 1
    46   24   25 1
    47   24   47 1
    48   24   48 1
    49   25   26 2
    50   25   49 1
    51   26   50 1
    52   26   51 1
@<TRIPOS>MOLECULE
ZINC56624813
   51    52     0     0     0
SMALL
USER_CHARGES

@<TRIPOS>ATOM
      1 C1         -0.9829   -2.5391   -1.1696 C.3       1 <0>        -0.0565
      2 N1         -1.4772   -1.9700    0.0912 N.4       1 <0>        -0.3793
      3 C2         -0.7364   -2.5556    1.2165 C.3       1 <0>        -0.0479
      4 C3         -1.2819   -0.5141    0.0811 C.3       1 <0>         0.0788
      5 H1         -0.2197   -0.2907   -0.0188 H         1 <0>         0.1500
      6 C4         -2.0442    0.0946   -1.0976 C.3       1 <0>         0.1243
      7 N2         -1.7661    1.5312   -1.1695 N.am      1 <0>        -0.7409
      8 C5         -2.2600    2.2630   -2.1878 C.2       1 <0>         0.7186
      9 O1         -2.9363    1.7310   -3.0468 O.2       1 <0>        -0.5618
     10 N3         -2.0042    3.5846   -2.2539 N.am      1 <0>        -0.5224
     11 N4         -1.2249    4.1977   -1.2641 N.am      1 <0>        -0.5402
     12 C6         -0.9691    5.5193   -1.3302 C.2       1 <0>         0.5196
     13 O2         -1.4136    6.1779   -2.2466 O.2       1 <0>        -0.5062
     14 C7         -0.1309    6.1787   -0.2655 C.3       1 <0>        -0.0757
     15 C8          0.0036    7.6484   -0.5707 C.ar      1 <0>        -0.1151
     16 C9          1.1036    8.1123   -1.2663 C.ar      1 <0>        -0.0663
     17 C10         1.2278    9.4604   -1.5461 C.ar      1 <0>        -0.1547
     18 C11         0.2518   10.3479   -1.1312 C.ar      1 <0>        -0.0701
     19 C12        -0.8500    9.8891   -0.4359 C.ar      1 <0>        -0.2068
     20 C13        -0.9796    8.5357   -0.1584 C.ar      1 <0>         0.1456
     21 O3         -2.0654    8.0811    0.5207 O.3       1 <0>        -0.3191
     22 C14        -3.0378    9.0516    0.9139 C.3       1 <0>         0.0264
     23 C15        -1.7992    0.0711    1.3699 C.2       1 <0>        -0.1641
     24 C16        -1.1129    1.0905    2.0028 C.2       1 <0>        -0.1701
     25 C17        -1.6053    1.5945    3.1606 C.2       1 <0>        -0.1441
     26 S1         -3.0831    0.6192    3.3890 S.3       1 <0>         0.1451
     27 C18        -2.9474   -0.3905    1.9230 C.2       1 <0>        -0.1954
     28 H2         -1.0136   -3.6273   -1.1139 H         1 <0>         0.1322
     29 H3         -1.6117   -2.1996   -1.9927 H         1 <0>         0.1290
     30 H4          0.0434   -2.2128   -1.3379 H         1 <0>         0.1265
     31 H5          0.3250   -2.3322    1.1084 H         1 <0>         0.1247
     32 H6         -1.1031   -2.1334    2.1520 H         1 <0>         0.1243
     33 H7         -0.8813   -3.6359    1.2240 H         1 <0>         0.1295
     34 H8         -1.7245   -0.3841   -2.0232 H         1 <0>         0.0987
     35 H9         -3.1138   -0.0619   -0.9582 H         1 <0>         0.0914
     36 H10        -1.2266    1.9556   -0.4842 H         1 <0>         0.3967
     37 H11        -2.3597    4.1113   -2.9868 H         1 <0>         0.4504
     38 H12        -0.8695    3.6710   -0.5312 H         1 <0>         0.4139
     39 H13        -0.6104    6.0516    0.7050 H         1 <0>         0.1118
     40 H14         0.8576    5.7199   -0.2453 H         1 <0>         0.1087
     41 H15         1.8672    7.4211   -1.5914 H         1 <0>         0.1284
     42 H16         2.0887    9.8211   -2.0893 H         1 <0>         0.1277
     43 H17         0.3513   11.4006   -1.3507 H         1 <0>         0.1283
     44 H18        -1.6119   10.5826   -0.1120 H         1 <0>         0.1306
     45 H19        -3.8503    8.5569    1.4461 H         1 <0>         0.1007
     46 H20        -2.5715    9.7891    1.5672 H         1 <0>         0.0585
     47 H21        -3.4333    9.5491    0.0284 H         1 <0>         0.0581
     48 H22        -0.1977    1.4792    1.5811 H         1 <0>         0.1438
     49 H23        -1.2070    2.3817    3.7836 H         1 <0>         0.2004
     50 H24        -3.6081   -1.1681    1.5691 H         1 <0>         0.1891
     51 H25        -2.4596   -2.1769    0.1913 H         1 <0>         0.4251
@<TRIPOS>BOND
     1    1    2 1
     2    1   28 1
     3    1   29 1
     4    1   30 1
     5    2    3 1
     6    2    4 1
     7    2   51 1
     8    3   31 1
     9    3   32 1
    10    3   33 1
    11    4    5 1
    12    4    6 1
    13    4   23 1
    14    6    7 1
    15    6   34 1
    16    6   35 1
    17    7    8 am
    18    7   36 1
    19    8    9 2
    20    8   10 am
    21   10   11 1
    22   10   37 1
    23   11   12 am
    24   11   38 1
    25   12   13 2
    26   12   14 1
    27   14   15 1
    28   14   39 1
    29   14   40 1
    30   15   20 ar
    31   15   16 ar
    32   16   17 ar
    33   16   41 1
    34   17   18 ar
    35   17   42 1
    36   18   19 ar
    37   18   43 1
    38   19   20 ar
    39   19   44 1
    40   20   21 1
    41   21   22 1
    42   22   45 1
    43   22   46 1
    44   22   47 1
    45   23   27 2
    46   23   24 1
    47   24   25 2
    48   24   48 1
    49   25   26 1
    50   25   49 1
    51   26   27 1
    52   27   50 1
@<TRIPOS>MOLECULE
ZINC63270635
   52    54     0     0     0
SMALL
USER_CHARGES

@<TRIPOS>ATOM
      1 C1          1.6618    2.3620    0.7850 C.2       1 <0>        -0.1533
      2 C2          1.1818    1.1481    0.8952 C.2       1 <0>        -0.1871
      3 C3          2.0385   -0.0369    0.5307 C.3       1 <0>         0.1455
      4 N1          2.1001   -0.9623    1.6648 N.am      1 <0>        -0.6938
      5 C4          2.8148   -2.1007    1.5675 C.2       1 <0>         0.5098
      6 O1          3.4074   -2.3593    0.5405 O.2       1 <0>        -0.5098
      7 C5          2.8776   -3.0442    2.7238 C.2       1 <0>         0.5105
      8 O2          2.2850   -2.7855    3.7508 O.2       1 <0>        -0.4966
      9 N2          3.5924   -4.1826    2.6265 N.am      1 <0>        -0.6334
     10 C6          3.7282   -5.0152    3.7327 C.ar      1 <0>         0.2070
     11 C7          2.6792   -5.1582    4.6319 C.ar      1 <0>        -0.1299
     12 C8          2.8162   -5.9851    5.7283 C.ar      1 <0>        -0.0622
     13 C9          3.9974   -6.6774    5.9415 C.ar      1 <0>        -0.1375
     14 C10         5.0491   -6.5476    5.0603 C.ar      1 <0>        -0.0662
     15 C11         4.9235   -5.7194    3.9427 C.ar      1 <0>        -0.1755
     16 C12         6.0433   -5.5807    2.9922 C.2       1 <0>         0.5703
     17 O3          5.9694   -4.7825    2.0780 O.2       1 <0>        -0.5272
     18 N3          7.1482   -6.3388    3.1373 N.am      1 <0>        -0.7304
     19 C13         8.2601   -6.2010    2.1934 C.3       1 <0>         0.1262
     20 C14         9.3805   -7.1683    2.5807 C.3       1 <0>        -0.1058
     21 C15        10.5244   -7.0266    1.6098 C.2       1 <0>         0.0705
     22 C16        11.6300   -6.2624    1.7616 C.ar      1 <0>        -0.1667
     23 C17        12.0807   -5.3679    2.8345 C.ar      1 <0>        -0.0127
     24 C18        13.2616   -4.7228    2.6980 C.ar      1 <0>        -0.1502
     25 C19        14.0636   -4.8865    1.5602 C.ar      1 <0>         0.0550
     26 C20        13.7168   -5.6909    0.5331 C.ar      1 <0>        -0.2099
     27 C21        12.4954   -6.4184    0.5707 C.ar      1 <0>         0.3280
     28 N4         11.9461   -7.2468   -0.2841 N.pl3     1 <0>        -0.5846
     29 C22        10.6715   -7.7152    0.2713 C.3       1 <0>         0.0603
     30 H1          2.6715    2.5135    0.4330 H         1 <0>         0.1015
     31 H2          1.0464    3.2114    1.0420 H         1 <0>         0.1084
     32 H3          0.1721    0.9966    1.2472 H         1 <0>         0.1202
     33 H4          1.6066   -0.5462   -0.3308 H         1 <0>         0.0848
     34 H5          3.0442    0.3038    0.2847 H         1 <0>         0.0790
     35 H6          1.6264   -0.7556    2.4856 H         1 <0>         0.4159
     36 H7          4.0120   -4.4215    1.7853 H         1 <0>         0.4331
     37 H8          1.7556   -4.6214    4.4730 H         1 <0>         0.1504
     38 H9          1.9978   -6.0931    6.4247 H         1 <0>         0.1382
     39 H10         4.0946   -7.3217    6.8027 H         1 <0>         0.1358
     40 H11         5.9678   -7.0889    5.2315 H         1 <0>         0.1296
     41 H12         7.2071   -6.9756    3.8666 H         1 <0>         0.4064
     42 H13         7.9126   -6.4320    1.1864 H         1 <0>         0.0809
     43 H14         8.6366   -5.1786    2.2223 H         1 <0>         0.0810
     44 H15         9.7280   -6.9373    3.5877 H         1 <0>         0.1166
     45 H16         9.0040   -8.1908    2.5518 H         1 <0>         0.1200
     46 H17        11.4782   -5.2266    3.7196 H         1 <0>         0.1607
     47 H18        13.5952   -4.0641    3.4862 H         1 <0>         0.1582
     48 H19        14.9972   -4.3465    1.5026 H         1 <0>         0.1613
     49 H20        14.3703   -5.7822   -0.3219 H         1 <0>         0.1609
     50 H21        10.6925   -8.7967    0.4055 H         1 <0>         0.1755
     51 H22         9.8506   -7.4337   -0.3883 H         1 <0>         0.1749
     52 H23        12.3216   -7.5093   -1.1391 H         1 <0>         0.4563
@<TRIPOS>BOND
     1    1    2 2
     2    1   30 1
     3    1   31 1
     4    2    3 1
     5    2   32 1
     6    3    4 1
     7    3   33 1
     8    3   34 1
     9    4    5 am
    10    4   35 1
    11    5    6 2
    12    5    7 1
    13    7    8 2
    14    7    9 am
    15    9   10 1
    16    9   36 1
    17   10   15 ar
    18   10   11 ar
    19   11   12 ar
    20   11   37 1
    21   12   13 ar
    22   12   38 1
    23   13   14 ar
    24   13   39 1
    25   14   15 ar
    26   14   40 1
    27   15   16 1
    28   16   17 2
    29   16   18 am
    30   18   19 1
    31   18   41 1
    32   19   20 1
    33   19   42 1
    34   19   43 1
    35   20   21 1
    36   20   44 1
    37   20   45 1
    38   21   29 1
    39   21   22 2
    40   22   27 ar
    41   22   23 ar
    42   23   24 ar
    43   23   46 1
    44   24   25 ar
    45   24   47 1
    46   25   26 ar
    47   25   48 1
    48   26   27 ar
    49   26   49 1
    50   27   28 2
    51   28   29 1
    52   28   52 1
    53   29   50 1
    54   29   51 1
@<TRIPOS>MOLECULE
ZINC66152769
   48    50     0     0     0
SMALL
USER_CHARGES

@<TRIPOS>ATOM
      1 C1         -0.0126    1.3739    0.1930 C.ar      1 <0>        -0.0707
      2 C2          1.1728    2.0822    0.1905 C.ar      1 <0>        -0.1348
      3 C3          2.3769    1.4194    0.0026 C.ar      1 <0>         0.1386
      4 C4          2.3910    0.0447   -0.1829 C.ar      1 <0>        -0.1930
      5 C5          1.2063   -0.6647   -0.1812 C.ar      1 <0>        -0.0889
      6 C6          0.0009   -0.0020    0.0073 C.ar      1 <0>         0.0758
      7 N1         -1.2015   -0.7214    0.0101 N.am      1 <0>        -0.6434
      8 C7         -2.3267   -0.1551   -0.4690 C.2       1 <0>         0.5097
      9 O1         -2.2806    0.9395   -0.9897 O.2       1 <0>        -0.5423
     10 C8         -3.6423   -0.8817   -0.3578 C.3       1 <0>        -0.1614
     11 C9         -4.7511   -0.0261   -0.9737 C.3       1 <0>         0.0390
     12 H1         -4.7545    0.9560   -0.5009 H         1 <0>         0.1792
     13 C10        -6.0784   -0.6926   -0.7471 C.2       1 <0>         0.5088
     14 O2         -6.2997   -1.1957    0.3340 O.2       1 <0>        -0.4833
     15 N2         -7.0262   -0.7531   -1.6894 N.am      1 <0>        -0.7191
     16 C11        -6.8413   -0.1996   -3.0285 C.3       1 <0>         0.0793
     17 C12        -5.6687    0.7831   -3.0284 C.3       1 <0>        -0.0207
     18 N3         -4.5048    0.1274   -2.4129 N.4       1 <0>        -0.5055
     19 O3          3.5436    2.1175   -0.0001 O.3       1 <0>        -0.2999
     20 C13         4.7458    1.3710   -0.1991 C.3       1 <0>         0.0483
     21 C14         5.9458    2.3198   -0.1710 C.3       1 <0>         0.0816
     22 H2          5.7999    3.1218   -0.8946 H         1 <0>         0.0933
     23 C15         7.2367    1.5416   -0.5049 C.3       1 <0>        -0.1485
     24 C16         8.2659    2.1772    0.4690 C.3       1 <0>        -0.1562
     25 C17         7.3659    2.4758    1.6944 C.3       1 <0>         0.0446
     26 O4          6.0983    2.8717    1.1419 O.3       1 <0>        -0.3687
     27 H3         -0.9495    1.8895    0.3437 H         1 <0>         0.1402
     28 H4          1.1625    3.1525    0.3346 H         1 <0>         0.1399
     29 H5          3.3287   -0.4707   -0.3292 H         1 <0>         0.1360
     30 H6          1.2174   -1.7349   -0.3263 H         1 <0>         0.1314
     31 H7         -1.2240   -1.6270    0.3569 H         1 <0>         0.4190
     32 H8         -3.5788   -1.8315   -0.8888 H         1 <0>         0.1277
     33 H9         -3.8673   -1.0670    0.6925 H         1 <0>         0.1602
     34 H10        -7.8697   -1.1813   -1.4747 H         1 <0>         0.4291
     35 H11        -6.6357   -1.0086   -3.7295 H         1 <0>         0.1024
     36 H12        -7.7494    0.3203   -3.3339 H         1 <0>         0.1305
     37 H13        -5.4295    1.0665   -4.0534 H         1 <0>         0.1600
     38 H14        -5.9358    1.6706   -2.4547 H         1 <0>         0.1447
     39 H15        -3.6840    0.6964   -2.5564 H         1 <0>         0.4469
     40 H16         4.8493    0.6308    0.5943 H         1 <0>         0.0698
     41 H17         4.7044    0.8660   -1.1641 H         1 <0>         0.0749
     42 H18         7.1129    0.4784   -0.2988 H         1 <0>         0.0809
     43 H19         7.5311    1.7052   -1.5415 H         1 <0>         0.0907
     44 H20         9.0545    1.4693    0.7241 H         1 <0>         0.0889
     45 H21         8.6834    3.0951    0.0552 H         1 <0>         0.0835
     46 H22         7.2500    1.5809    2.3058 H         1 <0>         0.0622
     47 H23         7.7896    3.2871    2.2864 H         1 <0>         0.0908
     48 H24        -4.3658   -0.7804   -2.8307 H         1 <0>         0.4282
@<TRIPOS>BOND
     1    1    6 ar
     2    1    2 ar
     3    1   27 1
     4    2    3 ar
     5    2   28 1
     6    3    4 ar
     7    3   19 1
     8    4    5 ar
     9    4   29 1
    10    5    6 ar
    11    5   30 1
    12    6    7 1
    13    7    8 am
    14    7   31 1
    15    8    9 2
    16    8   10 1
    17   10   11 1
    18   10   32 1
    19   10   33 1
    20   11   12 1
    21   11   18 1
    22   11   13 1
    23   13   14 2
    24   13   15 am
    25   15   16 1
    26   15   34 1
    27   16   17 1
    28   16   35 1
    29   16   36 1
    30   17   18 1
    31   17   37 1
    32   17   38 1
    33   18   39 1
    34   18   48 1
    35   19   20 1
    36   20   21 1
    37   20   40 1
    38   20   41 1
    39   21   22 1
    40   21   26 1
    41   21   23 1
    42   23   24 1
    43   23   42 1
    44   23   43 1
    45   24   25 1
    46   24   44 1
    47   24   45 1
    48   25   26 1
    49   25   46 1
    50   25   47 1
@<TRIPOS>MOLECULE
ZINC00473511
   44    46     0     0     0
SMALL
USER_CHARGES
9-(4-methoxybenzoyl)amino-8-thiabicyclo[5.3.0]deca-9,11-diene-10-carboxamide
@<TRIPOS>ATOM
      1 C1         10.1268   -6.6098    4.8479 C.3       1 <0>         0.0224
      2 O1         10.5474   -5.6897    3.8386 O.3       1 <0>        -0.3094
      3 C2          9.5926   -4.8936    3.2942 C.ar      1 <0>         0.1652
      4 C3          9.9349   -3.9765    2.3074 C.ar      1 <0>        -0.1589
      5 C4          8.9693   -3.1665    1.7528 C.ar      1 <0>        -0.0090
      6 C5          7.6434   -3.2679    2.1831 C.ar      1 <0>        -0.1809
      7 C6          7.3044   -4.1880    3.1790 C.ar      1 <0>        -0.0397
      8 C7          8.2751   -4.9979    3.7247 C.ar      1 <0>        -0.2158
      9 C8          6.6056   -2.4016    1.5919 C.2       1 <0>         0.5617
     10 O2          6.9033   -1.5982    0.7291 O.2       1 <0>        -0.4968
     11 N1          5.3276   -2.5009    2.0082 N.am      1 <0>        -0.6191
     12 C9          4.3530   -1.6875    1.4531 C.2       1 <0>         0.0746
     13 C10         2.9989   -1.6419    1.7462 C.2       1 <0>        -0.2325
     14 C11         2.1793   -0.6844    1.0159 C.2       1 <0>        -0.0621
     15 C12         2.8466    0.0615    0.1096 C.2       1 <0>        -0.2037
     16 S1          4.5303   -0.4795    0.2248 S.3       1 <0>         0.2306
     17 C13         2.2880    1.1047   -0.8069 C.3       1 <0>        -0.0388
     18 C14         1.4064    2.0675   -0.0003 C.3       1 <0>        -0.1139
     19 C15        -0.0186    1.5231    0.0104 C.3       1 <0>        -0.1215
     20 C16         0.0021   -0.0041    0.0020 C.3       1 <0>        -0.1249
     21 C17         0.6827   -0.5346    1.2590 C.3       1 <0>        -0.0581
     22 C18         2.4116   -2.5273    2.7564 C.2       1 <0>         0.5842
     23 O3          1.9830   -3.6196    2.4329 O.2       1 <0>        -0.5335
     24 N2          2.3464   -2.1318    4.0431 N.am      1 <0>        -0.8483
     25 H1          9.3813   -7.2883    4.4332 H         1 <0>         0.0605
     26 H2         10.9854   -7.1832    5.1973 H         1 <0>         0.1060
     27 H3          9.6930   -6.0598    5.6830 H         1 <0>         0.0602
     28 H4         10.9597   -3.8988    1.9755 H         1 <0>         0.1440
     29 H5          9.2360   -2.4542    0.9861 H         1 <0>         0.1485
     30 H6          6.2817   -4.2665    3.5171 H         1 <0>         0.1269
     31 H7          8.0131   -5.7122    4.4911 H         1 <0>         0.1390
     32 H8          5.0901   -3.1418    2.6965 H         1 <0>         0.4170
     33 H9          3.1052    1.6593   -1.2681 H         1 <0>         0.0753
     34 H10         1.6894    0.6257   -1.5818 H         1 <0>         0.0900
     35 H11         1.4186    3.0529   -0.4660 H         1 <0>         0.0710
     36 H12         1.7796    2.1372    1.0215 H         1 <0>         0.0673
     37 H13        -0.5493    1.8822   -0.8714 H         1 <0>         0.0648
     38 H14        -0.5323    1.8726    0.9060 H         1 <0>         0.0633
     39 H15        -1.0209   -0.3781   -0.0391 H         1 <0>         0.0663
     40 H16         0.5456   -0.3523   -0.8763 H         1 <0>         0.0745
     41 H17         0.5175    0.1616    2.0813 H         1 <0>         0.0767
     42 H18         0.2603   -1.5058    1.5168 H         1 <0>         0.0706
     43 H19         2.6879   -1.2613    4.3009 H         1 <0>         0.4037
     44 H20         1.9578   -2.7177    4.7115 H         1 <0>         0.4029
@<TRIPOS>BOND
     1    1    2 1
     2    1   25 1
     3    1   26 1
     4    1   27 1
     5    2    3 1
     6    3    8 ar
     7    3    4 ar
     8    4    5 ar
     9    4   28 1
    10    5    6 ar
    11    5   29 1
    12    6    7 ar
    13    6    9 1
    14    7    8 ar
    15    7   30 1
    16    8   31 1
    17    9   10 2
    18    9   11 am
    19   11   12 1
    20   11   32 1
    21   12   16 1
    22   12   13 2
    23   13   14 1
    24   13   22 1
    25   14   21 1
    26   14   15 2
    27   15   16 1
    28   15   17 1
    29   17   18 1
    30   17   33 1
    31   17   34 1
    32   18   19 1
    33   18   35 1
    34   18   36 1
    35   19   20 1
    36   19   37 1
    37   19   38 1
    38   20   21 1
    39   20   39 1
    40   20   40 1
    41   21   41 1
    42   21   42 1
    43   22   23 2
    44   22   24 am
    45   24   43 1
    46   24   44 1
@<TRIPOS>MOLECULE
ZINC19993605
   39    41     0     0     0
SMALL
USER_CHARGES
2-[(2R)-2,3-dihydroxypropyl]sulfanyl-5-(p-tolyl)-3H-thieno[3,2-e]pyrimidin-4-one
@<TRIPOS>ATOM
      1 C1          3.7098   -0.7056   -0.0372 C.3       1 <0>        -0.1184
      2 C2          2.3964    0.0331   -0.0206 C.ar      1 <0>        -0.0778
      3 C3          1.2079   -0.6749   -0.0131 C.ar      1 <0>        -0.1279
      4 C4          0.0021   -0.0041    0.0020 C.ar      1 <0>        -0.0979
      5 C5         -0.0168    1.3901    0.0097 C.ar      1 <0>        -0.0516
      6 C6          1.1842    2.0982    0.0020 C.ar      1 <0>        -0.0531
      7 C7          2.3839    1.4164   -0.0136 C.ar      1 <0>        -0.1249
      8 C8         -1.3088    2.1166    0.0197 C.2       1 <0>        -0.0076
      9 C9         -2.2787    1.8105   -0.8733 C.2       1 <0>        -0.1854
     10 S1         -3.5968    2.9348   -0.4544 S.3       1 <0>         0.1466
     11 C10        -2.8194    3.7890    0.8926 C.2       1 <0>         0.1238
     12 C11        -1.5564    3.1795    0.9890 C.2       1 <0>        -0.2533
     13 C12        -0.6987    3.6823    2.0153 C.2       1 <0>         0.5617
     14 O1          0.4159    3.2137    2.1726 O.2       1 <0>        -0.5077
     15 N1         -1.1362    4.6791    2.8061 N.am      1 <0>        -0.6338
     16 H1         -0.4873    5.0758    3.6008 H         1 <0>         0.4519
     17 C13        -2.3803    5.2161    2.6440 C.2       1 <0>         0.3763
     18 N2         -3.1911    4.7711    1.7055 N.2       1 <0>        -0.5069
     19 S2         -2.9093    6.5208    3.7035 S.3       1 <0>         0.0515
     20 C14        -4.5687    6.8104    3.0410 C.3       1 <0>        -0.1025
     21 C15        -5.2428    7.9359    3.8282 C.3       1 <0>         0.1296
     22 H2         -4.6387    8.8549    3.8066 H         1 <0>         0.0706
     23 C16        -6.6455    8.1807    3.2683 C.3       1 <0>         0.0608
     24 O2         -7.2306    9.3070    3.9248 O.3       1 <0>        -0.6045
     25 O3         -5.3377    7.5638    5.2047 O.3       1 <0>        -0.5930
     26 H3          3.5210   -1.7893   -0.0407 H         1 <0>         0.0652
     27 H4          4.2924   -0.4378    0.8566 H         1 <0>         0.0699
     28 H5          4.2747   -0.4289   -0.9396 H         1 <0>         0.0700
     29 H6          1.2238   -1.7548   -0.0194 H         1 <0>         0.1226
     30 H7         -0.9251   -0.5578    0.0075 H         1 <0>         0.1216
     31 H8          1.1757    3.1781    0.0075 H         1 <0>         0.1161
     32 H9          3.3148    1.9638   -0.0199 H         1 <0>         0.1206
     33 H10        -2.2593    1.0627   -1.6524 H         1 <0>         0.1986
     34 H11        -4.4956    7.0968    1.9814 H         1 <0>         0.1210
     35 H12        -5.1655    5.8909    3.1320 H         1 <0>         0.1145
     36 H13        -6.5797    8.3792    2.1884 H         1 <0>         0.0542
     37 H14        -7.2694    7.2912    3.4403 H         1 <0>         0.0570
     38 H15        -8.2442    9.6367    3.6530 H         1 <0>         0.4197
     39 H16        -5.7970    8.2516    5.9300 H         1 <0>         0.4223
@<TRIPOS>BOND
     1    1    2 1
     2    1   26 1
     3    1   27 1
     4    1   28 1
     5    2    7 ar
     6    2    3 ar
     7    3    4 ar
     8    3   29 1
     9    4    5 ar
    10    4   30 1
    11    5    6 ar
    12    5    8 1
    13    6    7 ar
    14    6   31 1
    15    7   32 1
    16    8   12 1
    17    8    9 2
    18    9   10 1
    19    9   33 1
    20   10   11 1
    21   11   18 1
    22   11   12 2
    23   12   13 1
    24   13   14 2
    25   13   15 am
    26   15   16 1
    27   15   17 1
    28   17   18 2
    29   17   19 1
    30   19   20 1
    31   20   21 1
    32   20   34 1
    33   20   35 1
    34   21   22 1
    35   21   23 1
    36   21   25 1
    37   23   24 1
    38   23   36 1
    39   23   37 1
    40   24   38 1
    41   25   39 1
@<TRIPOS>MOLECULE
ZINC44872472
   40    40     0     0     0
SMALL
USER_CHARGES

@<TRIPOS>ATOM
      1 C1         -2.1566    1.5897   -0.9552 C.3       1 <0>        -0.1484
      2 C2         -1.7091    0.1387   -1.1426 C.3       1 <0>        -0.0704
      3 C3         -0.3156    0.1122   -1.7736 C.3       1 <0>        -0.1521
      4 C4         -1.6666   -0.5616    0.2171 C.3       1 <0>        -0.0453
      5 H1         -0.9829   -0.0295    0.8786 H         1 <0>         0.1124
      6 C5         -3.0470   -0.5686    0.8219 C.2       1 <0>         0.3747
      7 N1         -4.0868   -0.4949    0.0589 N.2       1 <0>        -0.3956
      8 O1         -5.3838   -0.5015    0.6271 O.3       1 <0>        -0.4256
      9 N2         -3.1998   -0.6537    2.1879 N.pl3     1 <0>        -0.8709
     10 C6         -1.1898   -1.9798    0.0371 C.2       1 <0>         0.5295
     11 O2         -1.5425   -2.6198   -0.9308 O.2       1 <0>        -0.5104
     12 N3         -0.3715   -2.5368    0.9517 N.am      1 <0>        -0.6116
     13 C7          0.1384   -1.7323    2.0649 C.3       1 <0>         0.0683
     14 C8          0.0082   -3.9467    0.8327 C.3       1 <0>         0.1562
     15 C9          1.2649   -4.0608    0.0089 C.ar      1 <0>        -0.1048
     16 C10         1.1811   -4.2012   -1.3640 C.ar      1 <0>        -0.0781
     17 C11         2.3334   -4.3058   -2.1201 C.ar      1 <0>        -0.1147
     18 C12         3.5703   -4.2701   -1.5038 C.ar      1 <0>        -0.0856
     19 C13         3.6547   -4.1292   -0.1306 C.ar      1 <0>        -0.0942
     20 C14         2.5012   -4.0192    0.6252 C.ar      1 <0>        -0.0784
     21 Br1         5.3464   -4.0808    0.7131 Br        1 <0>        -0.0497
     22 H2         -2.1869    2.0886   -1.9239 H         1 <0>         0.0624
     23 H3         -3.1494    1.6086   -0.5056 H         1 <0>         0.0634
     24 H4         -1.4524    2.1057   -0.3026 H         1 <0>         0.0512
     25 H5         -2.4133   -0.3773   -1.7952 H         1 <0>         0.0987
     26 H6          0.3818    0.6571   -1.1374 H         1 <0>         0.0534
     27 H7          0.0173   -0.9206   -1.8763 H         1 <0>         0.0580
     28 H8         -0.3530    0.5813   -2.7568 H         1 <0>         0.0650
     29 H9         -6.0980   -0.4428   -0.0222 H         1 <0>         0.4021
     30 H10        -2.4190   -0.7090    2.7608 H         1 <0>         0.3930
     31 H11        -4.0883   -0.6582    2.5772 H         1 <0>         0.4095
     32 H12        -0.5937   -1.7240    2.8723 H         1 <0>         0.0598
     33 H13         1.0726   -2.1624    2.4259 H         1 <0>         0.0816
     34 H14         0.3157   -0.7121    1.7245 H         1 <0>         0.0751
     35 H15         0.1857   -4.3602    1.8255 H         1 <0>         0.0915
     36 H16        -0.7959   -4.4998    0.3473 H         1 <0>         0.0970
     37 H17         0.2149   -4.2295   -1.8457 H         1 <0>         0.1367
     38 H18         2.2674   -4.4159   -3.1924 H         1 <0>         0.1333
     39 H19         4.4707   -4.3526   -2.0946 H         1 <0>         0.1329
     40 H20         2.5666   -3.9053    1.6972 H         1 <0>         0.1304
@<TRIPOS>BOND
     1    1    2 1
     2    1   22 1
     3    1   23 1
     4    1   24 1
     5    2    3 1
     6    2    4 1
     7    2   25 1
     8    3   26 1
     9    3   27 1
    10    3   28 1
    11    4    5 1
    12    4    6 1
    13    4   10 1
    14    6    7 2
    15    6    9 1
    16    7    8 1
    17    8   29 1
    18    9   30 1
    19    9   31 1
    20   10   11 2
    21   10   12 am
    22   12   13 1
    23   12   14 1
    24   13   32 1
    25   13   33 1
    26   13   34 1
    27   14   15 1
    28   14   35 1
    29   14   36 1
    30   15   20 ar
    31   15   16 ar
    32   16   17 ar
    33   16   37 1
    34   17   18 ar
    35   17   38 1
    36   18   19 ar
    37   18   39 1
    38   19   20 ar
    39   19   21 1
    40   20   40 1
@<TRIPOS>MOLECULE
ZINC59285774
   48    51     0     0     0
SMALL
USER_CHARGES

@<TRIPOS>ATOM
      1 C1          1.6552    1.0540    0.6420 C.3       1 <0>         0.0265
      2 O1          1.1151   -0.2507    0.4228 O.3       1 <0>        -0.3155
      3 C2          1.1596   -0.7310   -0.8464 C.ar      1 <0>         0.1253
      4 C3          1.7178    0.0375   -1.8588 C.ar      1 <0>        -0.1957
      5 C4          1.7654   -0.4452   -3.1485 C.ar      1 <0>        -0.0634
      6 C5          1.2508   -1.7109   -3.4409 C.ar      1 <0>        -0.1561
      7 C6          0.6888   -2.4856   -2.4234 C.ar      1 <0>        -0.0374
      8 C7          0.6493   -1.9984   -1.1297 C.ar      1 <0>         0.1155
      9 N1          0.0919   -2.7749   -0.1047 N.am      1 <0>        -0.6615
     10 C8          0.0545   -4.1172   -0.2205 C.2       1 <0>         0.5207
     11 O2          0.5918   -4.6598   -1.1629 O.2       1 <0>        -0.5097
     12 C9         -0.6549   -4.9439    0.8209 C.3       1 <0>        -0.0656
     13 C10        -2.1286   -4.5366    0.8783 C.3       1 <0>        -0.1018
     14 C11        -2.8488   -5.3759    1.9356 C.3       1 <0>        -0.0834
     15 C12        -2.7430   -6.8577    1.5694 C.3       1 <0>        -0.1110
     16 C13        -1.2693   -7.2649    1.5119 C.3       1 <0>        -0.0865
     17 C14        -0.5492   -6.4256    0.4547 C.3       1 <0>        -0.0889
     18 C15        -0.6216   -7.0297    2.8780 C.3       1 <0>        -0.1108
     19 C16        -0.7273   -5.5479    3.2441 C.3       1 <0>        -0.0834
     20 C17        -2.2010   -5.1407    3.3016 C.3       1 <0>        -0.1103
     21 C18        -0.0071   -4.7086    2.1869 C.3       1 <0>        -0.1017
     22 C19         1.3006   -2.2283   -4.8225 C.2       1 <0>         0.5662
     23 O3          0.8526   -3.3298   -5.0757 O.2       1 <0>        -0.5337
     24 N2          1.8428   -1.4796   -5.8033 N.am      1 <0>        -0.8525
     25 H1          2.7086    1.0629    0.3623 H         1 <0>         0.0596
     26 H2          1.1121    1.7787    0.0355 H         1 <0>         0.0597
     27 H3          1.5568    1.3157    1.6956 H         1 <0>         0.1043
     28 H4          2.1154    1.0164   -1.6351 H         1 <0>         0.1405
     29 H5          2.2003    0.1552   -3.9338 H         1 <0>         0.1314
     30 H6          0.2901   -3.4644   -2.6457 H         1 <0>         0.1674
     31 H7         -0.2670   -2.3463    0.6880 H         1 <0>         0.4154
     32 H8         -2.2039   -3.4810    1.1392 H         1 <0>         0.0666
     33 H9         -2.5901   -4.7042   -0.0948 H         1 <0>         0.0703
     34 H10        -3.8987   -5.0858    1.9765 H         1 <0>         0.0757
     35 H11        -3.2561   -7.4556    2.3226 H         1 <0>         0.0652
     36 H12        -3.2045   -7.0253    0.5962 H         1 <0>         0.0642
     37 H13        -1.1940   -8.3206    1.2511 H         1 <0>         0.0757
     38 H14        -1.0106   -6.5932   -0.5185 H         1 <0>         0.0719
     39 H15         0.5007   -6.7158    0.4137 H         1 <0>         0.0711
     40 H16        -1.1347   -7.6276    3.6312 H         1 <0>         0.0652
     41 H17         0.4283   -7.3198    2.8370 H         1 <0>         0.0637
     42 H18        -0.2658   -5.3803    4.2173 H         1 <0>         0.0754
     43 H19        -2.2763   -4.0850    3.5625 H         1 <0>         0.0635
     44 H20        -2.7141   -5.7386    4.0548 H         1 <0>         0.0661
     45 H21         1.0427   -4.9988    2.1459 H         1 <0>         0.0697
     46 H22        -0.0825   -3.6530    2.4477 H         1 <0>         0.0666
     47 H23         2.2003   -0.6007   -5.6013 H         1 <0>         0.3996
     48 H24         1.8755   -1.8195   -6.7112 H         1 <0>         0.4061
@<TRIPOS>BOND
     1    1    2 1
     2    1   25 1
     3    1   26 1
     4    1   27 1
     5    2    3 1
     6    3    8 ar
     7    3    4 ar
     8    4    5 ar
     9    4   28 1
    10    5    6 ar
    11    5   29 1
    12    6    7 ar
    13    6   22 1
    14    7    8 ar
    15    7   30 1
    16    8    9 1
    17    9   10 am
    18    9   31 1
    19   10   11 2
    20   10   12 1
    21   12   17 1
    22   12   21 1
    23   12   13 1
    24   13   14 1
    25   13   32 1
    26   13   33 1
    27   14   20 1
    28   14   15 1
    29   14   34 1
    30   15   16 1
    31   15   35 1
    32   15   36 1
    33   16   17 1
    34   16   18 1
    35   16   37 1
    36   17   38 1
    37   17   39 1
    38   18   19 1
    39   18   40 1
    40   18   41 1
    41   19   20 1
    42   19   21 1
    43   19   42 1
    44   20   43 1
    45   20   44 1
    46   21   45 1
    47   21   46 1
    48   22   23 2
    49   22   24 am
    50   24   47 1
    51   24   48 1
@<TRIPOS>MOLECULE
ZINC14075941
   39    41     0     0     0
SMALL
USER_CHARGES

@<TRIPOS>ATOM
      1 C1         -0.0165    1.3620    0.0095 C.ar      1 <0>        -0.1428
      2 C2          1.1697    2.0834    0.0021 C.ar      1 <0>        -0.0985
      3 C3          2.3856    1.4362   -0.0134 C.ar      1 <0>        -0.1297
      4 C4          2.4281    0.0456   -0.0212 C.ar      1 <0>         0.0950
      5 C5          1.2234   -0.6807   -0.0132 C.ar      1 <0>        -0.0895
      6 C6          0.0021   -0.0041    0.0020 C.ar      1 <0>        -0.0704
      7 C7          1.6036   -2.0953   -0.0245 C.2       1 <0>        -0.1726
      8 C8          2.9451   -2.1410   -0.0380 C.2       1 <0>         0.0763
      9 N1          3.4551   -0.8713   -0.0363 N.pl3     1 <0>        -0.5921
     10 H1          4.3995   -0.6501   -0.0442 H         1 <0>         0.4178
     11 C9          0.6664   -3.2754   -0.0210 C.3       1 <0>        -0.0300
     12 C10         0.2425   -3.5844   -1.4338 C.2       1 <0>         0.4641
     13 O1          0.6588   -2.9150   -2.3495 O.2       1 <0>        -0.4906
     14 O2         -0.5974   -4.6033   -1.6749 O.3       1 <0>        -0.3233
     15 C11        -0.9569   -4.8392   -3.0377 C.3       1 <0>         0.1174
     16 H2         -0.1370   -4.5339   -3.6878 H         1 <0>         0.1197
     17 C12        -1.2361   -6.3066   -3.2368 C.ar      1 <0>        -0.1115
     18 C13        -1.9248   -7.0160   -2.2705 C.ar      1 <0>        -0.0539
     19 C14        -2.1819   -8.3616   -2.4521 C.ar      1 <0>        -0.1522
     20 C15        -1.7494   -8.9994   -3.6025 C.ar      1 <0>         0.1131
     21 C16        -1.0597   -8.2879   -4.5696 C.ar      1 <0>        -0.1515
     22 C17        -0.8084   -6.9411   -4.3881 C.ar      1 <0>        -0.0750
     23 F1         -1.9998  -10.3149   -3.7810 F         1 <0>        -0.1345
     24 C18        -2.1903   -4.0426   -3.3769 C.2       1 <0>         0.5109
     25 O3         -2.7103   -3.3418   -2.5346 O.2       1 <0>        -0.5211
     26 N2         -2.7155   -4.1088   -4.6164 N.am      1 <0>        -0.8447
     27 H3         -0.9613    1.8849    0.0259 H         1 <0>         0.1228
     28 H4          1.1388    3.1630    0.0081 H         1 <0>         0.1256
     29 H5          3.3028    2.0064   -0.0198 H         1 <0>         0.1201
     30 H6         -0.9246   -0.5587    0.0082 H         1 <0>         0.1201
     31 H7          3.5346   -3.0459   -0.0490 H         1 <0>         0.1715
     32 H8          1.1742   -4.1414    0.4036 H         1 <0>         0.1151
     33 H9         -0.2127   -3.0396    0.5787 H         1 <0>         0.1167
     34 H10        -2.2618   -6.5184   -1.3731 H         1 <0>         0.1427
     35 H11        -2.7196   -8.9156   -1.6970 H         1 <0>         0.1423
     36 H12        -0.7216   -8.7844   -5.4671 H         1 <0>         0.1431
     37 H13        -0.2744   -6.3850   -5.1443 H         1 <0>         0.1389
     38 H14        -2.2996   -4.6693   -5.2900 H         1 <0>         0.4024
     39 H15        -3.5095   -3.5961   -4.8347 H         1 <0>         0.4085
@<TRIPOS>BOND
     1    1    6 ar
     2    1    2 ar
     3    1   27 1
     4    2    3 ar
     5    2   28 1
     6    3    4 ar
     7    3   29 1
     8    4    9 1
     9    4    5 ar
    10    5    6 ar
    11    5    7 1
    12    6   30 1
    13    7    8 2
    14    7   11 1
    15    8    9 1
    16    8   31 1
    17    9   10 1
    18   11   12 1
    19   11   32 1
    20   11   33 1
    21   12   13 2
    22   12   14 1
    23   14   15 1
    24   15   16 1
    25   15   17 1
    26   15   24 1
    27   17   22 ar
    28   17   18 ar
    29   18   19 ar
    30   18   34 1
    31   19   20 ar
    32   19   35 1
    33   20   21 ar
    34   20   23 1
    35   21   22 ar
    36   21   36 1
    37   22   37 1
    38   24   25 2
    39   24   26 am
    40   26   38 1
    41   26   39 1
@<TRIPOS>MOLECULE
ZINC09256522
   59    62     0     0     0
SMALL
USER_CHARGES
1-(4-acetyl-3,5-dimethyl-1H-pyrrol-2-yl)-2-[2-(1H-indol-3-yl)-2-(2-thienyl)ethyl]amino-propan-1-one
@<TRIPOS>ATOM
      1 C1         -4.9102   -0.1812    1.4682 C.3       1 <0>        -0.1114
      2 C2         -3.6117   -0.8644    1.8121 C.2       1 <0>         0.0246
      3 C3         -3.4216   -2.2460    2.0425 C.2       1 <0>        -0.2598
      4 C4         -2.0759   -2.4311    2.3246 C.2       1 <0>         0.1538
      5 N1         -1.4593   -1.2427    2.2692 N.pl3     1 <0>        -0.5265
      6 H1         -0.5133   -1.0938    2.4237 H         1 <0>         0.4215
      7 C5         -2.3819   -0.2629    1.9616 C.2       1 <0>        -0.1286
      8 C6         -2.1098    1.1193    1.8187 C.2       1 <0>         0.4139
      9 O1         -3.0065    1.8887    1.5395 O.2       1 <0>        -0.4350
     10 C7         -0.7074    1.6353    2.0132 C.3       1 <0>        -0.0034
     11 H2         -0.2821    1.1621    2.7847 H         1 <0>         0.1354
     12 C8          0.1096    1.3823    0.7445 C.3       1 <0>        -0.1787
     13 C9          0.4359    3.5048    3.0429 C.3       1 <0>        -0.0034
     14 C10         0.3557    5.0091    3.3101 C.3       1 <0>         0.0736
     15 H3          0.2264    5.5394    2.3666 H         1 <0>         0.1200
     16 C11        -0.8160    5.2972    4.2129 C.2       1 <0>        -0.2092
     17 C12        -1.9017    6.0748    3.9806 C.2       1 <0>        -0.1177
     18 C13        -2.8640    6.1940    4.9657 C.2       1 <0>        -0.1663
     19 C14        -2.6937    5.5297    6.1349 C.2       1 <0>        -0.1374
     20 S1         -1.1383    4.6965    5.8630 S.3       1 <0>         0.0398
     21 C15         1.6273    5.4697    3.9751 C.2       1 <0>        -0.1950
     22 C16         2.1151    5.0400    5.1495 C.2       1 <0>         0.0859
     23 N2          3.2892    5.6840    5.4308 N.pl3     1 <0>        -0.5840
     24 H4          3.8274    5.5400    6.2248 H         1 <0>         0.4235
     25 C17         3.5933    6.5663    4.4184 C.ar      1 <0>         0.0964
     26 C18         2.5686    6.4666    3.4593 C.ar      1 <0>        -0.0923
     27 C19         2.6158    7.2510    2.3056 C.ar      1 <0>        -0.0817
     28 C20         3.6604    8.1107    2.1119 C.ar      1 <0>        -0.1310
     29 C21         4.6753    8.2103    3.0534 C.ar      1 <0>        -0.0917
     30 C22         4.6448    7.4508    4.2027 C.ar      1 <0>        -0.1221
     31 C23        -1.4162   -3.7500    2.6351 C.3       1 <0>        -0.1124
     32 C24        -4.4527   -3.2877    1.9926 C.2       1 <0>         0.4281
     33 O2         -5.0789   -3.5696    2.9927 O.2       1 <0>        -0.4378
     34 C25        -4.7343   -4.0079    0.6992 C.3       1 <0>        -0.1898
     35 H5         -5.0327   -0.1576    0.3853 H         1 <0>         0.0876
     36 H6         -5.7390   -0.7297    1.9157 H         1 <0>         0.0764
     37 H7         -4.8981    0.8379    1.8547 H         1 <0>         0.0885
     38 H8          0.1413    0.3121    0.5402 H         1 <0>         0.1081
     39 H9          1.1240    1.7555    0.8852 H         1 <0>         0.1002
     40 H10        -0.3544    1.8990   -0.0955 H         1 <0>         0.0964
     41 H11         0.4759    2.9689    3.9912 H         1 <0>         0.1313
     42 H12         1.3331    3.2860    2.4638 H         1 <0>         0.1473
     43 H13        -2.0130    6.5938    3.0400 H         1 <0>         0.1397
     44 H14        -3.7385    6.8075    4.8062 H         1 <0>         0.1444
     45 H15        -3.3345    5.5071    7.0039 H         1 <0>         0.1936
     46 H16         1.6496    4.2964    5.7794 H         1 <0>         0.1662
     47 H17         1.8294    7.1791    1.5688 H         1 <0>         0.1204
     48 H18         3.6962    8.7176    1.2193 H         1 <0>         0.1279
     49 H19         5.4942    8.8943    2.8862 H         1 <0>         0.1318
     50 H20         5.4402    7.5342    4.9285 H         1 <0>         0.1258
     51 H21        -1.1480   -4.2500    1.7044 H         1 <0>         0.0980
     52 H22        -0.5172   -3.5762    3.2264 H         1 <0>         0.0826
     53 H23        -2.1063   -4.3776    3.1989 H         1 <0>         0.0966
     54 H24        -4.1952   -4.8493    0.6620 H         1 <0>         0.0906
     55 H25        -5.7949   -4.2531    0.6433 H         1 <0>         0.0938
     56 H26        -4.4650   -3.3664   -0.1399 H         1 <0>         0.0857
     57 N3         -0.7579    3.0841    2.2855 N.4       1 <0>        -0.5098
     58 H27        -1.5994    3.2965    2.8343 H         1 <0>         0.4370
     59 H28        -0.7918    3.5951    1.3955 H         1 <0>         0.4385
@<TRIPOS>BOND
     1    1    2 1
     2    1   35 1
     3    1   36 1
     4    1   37 1
     5    2    7 2
     6    2    3 1
     7    3    4 2
     8    3   32 1
     9    4    5 1
    10    4   31 1
    11    5    6 1
    12    5    7 1
    13    7    8 1
    14    8    9 2
    15    8   10 1
    16   10   11 1
    17   10   12 1
    18   10   57 1
    19   12   38 1
    20   12   39 1
    21   12   40 1
    22   13   14 1
    23   13   41 1
    24   13   42 1
    25   13   57 1
    26   14   15 1
    27   14   16 1
    28   14   21 1
    29   16   20 1
    30   16   17 2
    31   17   18 1
    32   17   43 1
    33   18   19 2
    34   18   44 1
    35   19   20 1
    36   19   45 1
    37   21   26 1
    38   21   22 2
    39   22   23 1
    40   22   46 1
    41   23   24 1
    42   23   25 1
    43   25   30 ar
    44   25   26 ar
    45   26   27 ar
    46   27   28 ar
    47   27   47 1
    48   28   29 ar
    49   28   48 1
    50   29   30 ar
    51   29   49 1
    52   30   50 1
    53   31   51 1
    54   31   52 1
    55   31   53 1
    56   32   33 2
    57   32   34 1
    58   34   54 1
    59   34   55 1
    60   34   56 1
    61   57   58 1
    62   57   59 1
@<TRIPOS>MOLECULE
ZINC22966117
   52    54     0     0     0
SMALL
USER_CHARGES
2-[[(2R)-2-[methyl-[[2-(trifluoromethyl)phenyl]methyl]amino]propanoyl]amino]-5,6-dihydro-4H-cyclopenta[d]thiophene-3-carboxamide
@<TRIPOS>ATOM
      1 C1          3.2061    5.8880   -1.2446 C.3       1 <0>        -0.1865
      2 C2          2.3419    5.7726    0.0126 C.3       1 <0>         0.0192
      3 H1          2.9548    5.8643    0.9214 H         1 <0>         0.1656
      4 C3          1.6286    4.4451    0.0118 C.2       1 <0>         0.5040
      5 O1          0.4164    4.4080    0.0237 O.2       1 <0>        -0.4967
      6 N1          2.3377    3.2991   -0.0021 N.am      1 <0>        -0.6035
      7 C4          1.6814    2.0776   -0.0028 C.2       1 <0>         0.0344
      8 C5          2.2295    0.8065   -0.0149 C.2       1 <0>        -0.1767
      9 C6          1.3074   -0.3287   -0.0132 C.2       1 <0>        -0.1010
     10 C7          0.0021   -0.0041    0.0020 C.2       1 <0>        -0.2123
     11 S1         -0.0220    1.7719    0.0118 S.3       1 <0>         0.2582
     12 C8         -0.8819   -1.2217    0.0066 C.3       1 <0>        -0.0419
     13 C9          0.0509   -2.3782    0.4289 C.3       1 <0>        -0.1123
     14 C10         1.4275   -1.8532   -0.0249 C.3       1 <0>        -0.0584
     15 C11         3.6818    0.6055   -0.0295 C.2       1 <0>         0.5760
     16 O2          4.2749    0.5283   -1.0895 O.2       1 <0>        -0.5369
     17 N2          4.3601    0.5062    1.1309 N.am      1 <0>        -0.8692
     18 N3          1.3537    6.8594    0.0290 N.4       1 <0>        -0.4013
     19 C12         0.4964    6.8094   -1.1628 C.3       1 <0>        -0.0709
     20 C13         2.0116    8.1673    0.1498 C.3       1 <0>         0.0214
     21 C14         0.9743    9.2293    0.4095 C.ar      1 <0>        -0.1048
     22 C15         0.5326   10.0320   -0.6259 C.ar      1 <0>        -0.0874
     23 C16        -0.4222   11.0028   -0.3887 C.ar      1 <0>        -0.0757
     24 C17        -0.9279   11.1781    0.8860 C.ar      1 <0>        -0.0838
     25 C18        -0.4825   10.3791    1.9221 C.ar      1 <0>        -0.0593
     26 C19         0.4688    9.4045    1.6838 C.ar      1 <0>        -0.1718
     27 C20         0.9548    8.5337    2.8136 C.3       1 <0>         0.5068
     28 F1          0.3025    8.8974    3.9966 F         1 <0>        -0.1498
     29 F2          0.6784    7.1937    2.5217 F         1 <0>        -0.1796
     30 F3          2.3347    8.7016    2.9714 F         1 <0>        -0.1625
     31 H2          3.7267    6.8570   -1.2440 H         1 <0>         0.1024
     32 H3          2.5668    5.8158   -2.1369 H         1 <0>         0.0963
     33 H4          3.9461    5.0742   -1.2568 H         1 <0>         0.1113
     34 H5          3.4371    3.3327   -0.0129 H         1 <0>         0.4535
     35 H6         -1.7034   -1.0757    0.7234 H         1 <0>         0.0835
     36 H7         -1.2970   -1.3772   -1.0001 H         1 <0>         0.0899
     37 H8         -0.0187   -2.5269    1.5166 H         1 <0>         0.0810
     38 H9         -0.2522   -3.3010   -0.0874 H         1 <0>         0.0899
     39 H10         1.6722   -2.1939   -1.0418 H         1 <0>         0.0864
     40 H11         2.2240   -2.1636    0.6673 H         1 <0>         0.0759
     41 H12         5.4497    0.3554    1.1199 H         1 <0>         0.4284
     42 H13         3.8241    0.5760    2.0890 H         1 <0>         0.4235
     43 H14        -0.2325    7.6323   -1.1249 H         1 <0>         0.1250
     44 H15        -0.0372    5.8479   -1.1905 H         1 <0>         0.1477
     45 H16         1.1170    6.9106   -2.0654 H         1 <0>         0.1211
     46 H17         2.7274    8.1419    0.9847 H         1 <0>         0.1430
     47 H18         2.5455    8.3968   -0.7841 H         1 <0>         0.1518
     48 H19         0.9309    9.8980   -1.6208 H         1 <0>         0.1481
     49 H20        -0.7700   11.6274   -1.1983 H         1 <0>         0.1503
     50 H21        -1.6708   11.9396    1.0723 H         1 <0>         0.1522
     51 H22        -0.8773   10.5163    2.9180 H         1 <0>         0.1541
     52 H23         0.7130    6.7204    0.9123 H         1 <0>         0.4416
@<TRIPOS>BOND
     1    1    2 1
     2    1   31 1
     3    1   32 1
     4    1   33 1
     5    2    3 1
     6    2    4 1
     7    2   18 1
     8    4    5 2
     9    4    6 am
    10    6    7 1
    11    6   34 1
    12    7   11 1
    13    7    8 2
    14    8    9 1
    15    8   15 1
    16    9   14 1
    17    9   10 2
    18   10   11 1
    19   10   12 1
    20   12   13 1
    21   12   35 1
    22   12   36 1
    23   13   14 1
    24   13   37 1
    25   13   38 1
    26   14   39 1
    27   14   40 1
    28   15   16 2
    29   15   17 am
    30   17   41 1
    31   17   42 1
    32   18   19 1
    33   18   20 1
    34   18   52 1
    35   19   43 1
    36   19   44 1
    37   19   45 1
    38   20   21 1
    39   20   46 1
    40   20   47 1
    41   21   26 ar
    42   21   22 ar
    43   22   23 ar
    44   22   48 1
    45   23   24 ar
    46   23   49 1
    47   24   25 ar
    48   24   50 1
    49   25   26 ar
    50   25   51 1
    51   26   27 1
    52   27   28 1
    53   27   29 1
    54   27   30 1
@<TRIPOS>MOLECULE
ZINC39631130
   68    70     0     0     0
SMALL
USER_CHARGES

@<TRIPOS>ATOM
      1 C1         -0.5589   -0.8800    0.6375 C.3       1 <0>        -0.1683
      2 C2          0.9394   -0.9906    0.9269 C.3       1 <0>         0.1432
      3 H1          1.3279   -0.0123    1.2101 H         1 <0>         0.0900
      4 C3          1.1661   -1.9802    2.0714 C.3       1 <0>        -0.1324
      5 C4          2.6499   -1.9976    2.4442 C.3       1 <0>        -0.1108
      6 C5          2.8767   -2.9873    3.5888 C.3       1 <0>        -0.1503
      7 C6          4.3605   -3.0047    3.9615 C.3       1 <0>         0.1266
      8 C7          4.6081   -4.0825    5.0188 C.3       1 <0>        -0.1845
      9 C8          5.1955   -3.3102    2.7164 C.3       1 <0>        -0.1415
     10 O1          4.7351   -1.7289    4.4851 O.3       1 <0>        -0.5644
     11 N1          1.6348   -1.4636   -0.2727 N.am      1 <0>        -0.7241
     12 C9          2.0144   -0.5854   -1.2220 C.2       1 <0>         0.5131
     13 O2          1.7802    0.5965   -1.0832 O.2       1 <0>        -0.5093
     14 C10         2.7297   -1.0720   -2.4559 C.3       1 <0>        -0.1150
     15 H2          2.4511   -2.1031   -2.6734 H         1 <0>         0.1161
     16 C11         2.4042   -0.1612   -3.6608 C.3       1 <0>         0.1226
     17 N2          3.5179    0.8154   -3.7036 N.am      1 <0>        -0.6132
     18 C12         4.7221    0.0160   -3.3736 C.3       1 <0>         0.0962
     19 C13         4.2523   -0.9559   -2.2729 C.3       1 <0>        -0.0714
     20 C14         4.9120   -2.3194   -2.4554 C.3       1 <0>        -0.1350
     21 C15         6.4181   -2.1896   -2.2112 C.3       1 <0>        -0.0107
     22 N3          6.6539   -1.6875   -0.8522 N.4       1 <0>        -0.5060
     23 C16         6.0967   -0.3365   -0.7139 C.3       1 <0>        -0.0106
     24 C17         4.5771   -0.3879   -0.8947 C.3       1 <0>        -0.1483
     25 C18         3.4513    2.1328   -3.9804 C.2       1 <0>         0.5825
     26 O3          2.3707    2.6668   -4.1382 O.2       1 <0>        -0.4838
     27 C19         4.6913    2.9276   -4.0920 C.ar      1 <0>        -0.1240
     28 C20         5.8447    2.3556   -4.6333 C.ar      1 <0>        -0.0751
     29 C21         6.9988    3.1023   -4.7349 C.ar      1 <0>        -0.1159
     30 C22         7.0174    4.4182   -4.3010 C.ar      1 <0>        -0.0015
     31 C23         5.8784    4.9920   -3.7629 C.ar      1 <0>        -0.1068
     32 C24         4.7138    4.2569   -3.6617 C.ar      1 <0>         0.0222
     33 Cl1         3.2836    4.9797   -2.9939 Cl        1 <0>        -0.0138
     34 Cl2         8.4756    5.3509   -4.4322 Cl        1 <0>        -0.0372
     35 H3         -0.7204   -0.1750   -0.1779 H         1 <0>         0.0627
     36 H4         -0.9474   -1.8583    0.3543 H         1 <0>         0.0588
     37 H5         -1.0763   -0.5281    1.5300 H         1 <0>         0.0695
     38 H6          0.5777   -1.6757    2.9369 H         1 <0>         0.0832
     39 H7          0.8591   -2.9773    1.7558 H         1 <0>         0.0701
     40 H8          3.2384   -2.3021    1.5787 H         1 <0>         0.0559
     41 H9          2.9570   -1.0005    2.7598 H         1 <0>         0.0694
     42 H10         2.2882   -2.6828    4.4543 H         1 <0>         0.0706
     43 H11         2.5696   -3.9844    3.2732 H         1 <0>         0.0732
     44 H12         4.3223   -5.0557    4.6195 H         1 <0>         0.0670
     45 H13         5.6652   -4.0950    5.2843 H         1 <0>         0.0653
     46 H14         4.0132   -3.8649    5.9058 H         1 <0>         0.0625
     47 H15         5.0191   -2.5424    1.9632 H         1 <0>         0.0515
     48 H16         6.2526   -3.3226    2.9820 H         1 <0>         0.0629
     49 H17         4.9098   -4.2834    2.3171 H         1 <0>         0.0719
     50 H18         4.2449   -1.4695    5.2772 H         1 <0>         0.3829
     51 H19         1.8221   -2.4089   -0.3837 H         1 <0>         0.3968
     52 H20         2.3747   -0.7445   -4.5811 H         1 <0>         0.0891
     53 H21         1.4551    0.3514   -3.5043 H         1 <0>         0.1022
     54 H22         5.0627   -0.5376   -4.2485 H         1 <0>         0.0892
     55 H23         5.5160    0.6615   -2.9979 H         1 <0>         0.0870
     56 H24         4.4876   -3.0272   -1.7434 H         1 <0>         0.0980
     57 H25         4.7374   -2.6751   -3.4709 H         1 <0>         0.1233
     58 H26         6.8898   -3.1657   -2.3246 H         1 <0>         0.1409
     59 H27         6.8446   -1.4943   -2.9342 H         1 <0>         0.1331
     60 H28         6.2107   -2.3024   -0.1862 H         1 <0>         0.4262
     61 H29         6.3316    0.0535    0.2765 H         1 <0>         0.1400
     62 H30         6.5308    0.3147   -1.4726 H         1 <0>         0.1328
     63 H31         4.1662    0.6181   -0.8097 H         1 <0>         0.1252
     64 H32         4.1406   -1.0259   -0.1262 H         1 <0>         0.0976
     65 H33         5.8324    1.3300   -4.9714 H         1 <0>         0.1443
     66 H34         7.8910    2.6605   -5.1534 H         1 <0>         0.1483
     67 H35         5.8994    6.0178   -3.4258 H         1 <0>         0.1554
     68 H36         7.6464   -1.6606   -0.6724 H         1 <0>         0.4344
@<TRIPOS>BOND
     1    1    2 1
     2    1   35 1
     3    1   36 1
     4    1   37 1
     5    2    3 1
     6    2    4 1
     7    2   11 1
     8    4    5 1
     9    4   38 1
    10    4   39 1
    11    5    6 1
    12    5   40 1
    13    5   41 1
    14    6    7 1
    15    6   42 1
    16    6   43 1
    17    7    8 1
    18    7    9 1
    19    7   10 1
    20    8   44 1
    21    8   45 1
    22    8   46 1
    23    9   47 1
    24    9   48 1
    25    9   49 1
    26   10   50 1
    27   11   12 am
    28   11   51 1
    29   12   13 2
    30   12   14 1
    31   14   15 1
    32   14   19 1
    33   14   16 1
    34   16   17 1
    35   16   52 1
    36   16   53 1
    37   17   18 1
    38   17   25 am
    39   18   19 1
    40   18   54 1
    41   18   55 1
    42   19   24 1
    43   19   20 1
    44   20   21 1
    45   20   56 1
    46   20   57 1
    47   21   22 1
    48   21   58 1
    49   21   59 1
    50   22   23 1
    51   22   60 1
    52   22   68 1
    53   23   24 1
    54   23   61 1
    55   23   62 1
    56   24   63 1
    57   24   64 1
    58   25   26 2
    59   25   27 1
    60   27   32 ar
    61   27   28 ar
    62   28   29 ar
    63   28   65 1
    64   29   30 ar
    65   29   66 1
    66   30   31 ar
    67   30   34 1
    68   31   32 ar
    69   31   67 1
    70   32   33 1
@<TRIPOS>MOLECULE
ZINC39684041
   66    70     0     0     0
SMALL
USER_CHARGES

@<TRIPOS>ATOM
      1 C1          1.4102   -0.6564   -4.4350 C.3       1 <0>        -0.1169
      2 C2          0.1605   -0.7875   -5.2670 C.ar      1 <0>        -0.0881
      3 C3         -0.1581   -1.9944   -5.8504 C.ar      1 <0>        -0.1027
      4 C4         -1.3058   -2.1280   -6.6193 C.ar      1 <0>        -0.1364
      5 C5         -2.1410   -1.0633   -6.8106 C.ar      1 <0>        -0.0836
      6 C6         -1.8378    0.1686   -6.2284 C.ar      1 <0>        -0.0960
      7 C7         -2.4889    1.4809   -6.2247 C.2       1 <0>        -0.1854
      8 C8         -1.7238    2.2965   -5.4821 C.2       1 <0>         0.0699
      9 N1         -0.6360    1.6140   -5.0098 N.pl3     1 <0>        -0.5903
     10 C9         -0.6782    0.3079   -5.4437 C.ar      1 <0>         0.0970
     11 C10        -3.7736    1.8461   -6.9227 C.3       1 <0>        -0.0475
     12 C11        -4.9609    1.4804   -6.0297 C.3       1 <0>         0.1205
     13 N2         -6.2098    1.8355   -6.7082 N.am      1 <0>        -0.7279
     14 C12        -7.3933    1.6028   -6.1067 C.2       1 <0>         0.5187
     15 O1         -7.4243    1.0995   -5.0037 O.2       1 <0>        -0.5201
     16 C13        -8.6780    1.9680   -6.8047 C.3       1 <0>        -0.1145
     17 H1         -8.5177    2.8115   -7.4762 H         1 <0>         0.1122
     18 C14        -9.7753    2.3048   -5.7703 C.3       1 <0>         0.1004
     19 N3        -11.0211    1.7530   -6.3528 N.am      1 <0>        -0.6191
     20 C15       -10.6055    0.4660   -6.9603 C.3       1 <0>         0.1108
     21 C16        -9.2264    0.7605   -7.5832 C.3       1 <0>        -0.0721
     22 C17        -9.3783    1.1091   -9.0607 C.3       1 <0>        -0.1341
     23 C18        -9.8710   -0.1241   -9.8232 C.3       1 <0>        -0.0113
     24 N4         -8.9107   -1.2215   -9.6549 N.4       1 <0>        -0.5043
     25 C19        -8.8395   -1.6127   -8.2419 C.3       1 <0>        -0.0079
     26 C20        -8.3035   -0.4423   -7.4126 C.3       1 <0>        -0.1467
     27 C21       -12.2536    2.2979   -6.3346 C.2       1 <0>         0.5862
     28 O2        -13.2000    1.6754   -6.7755 O.2       1 <0>        -0.5038
     29 C22       -12.4545    3.6522   -5.7786 C.ar      1 <0>        -0.1331
     30 C23       -11.7031    4.0787   -4.6818 C.ar      1 <0>        -0.0848
     31 C24       -11.8951    5.3439   -4.1680 C.ar      1 <0>        -0.1191
     32 C25       -12.8306    6.1912   -4.7363 C.ar      1 <0>        -0.0756
     33 C26       -13.5792    5.7764   -5.8223 C.ar      1 <0>        -0.1145
     34 C27       -13.3931    4.5139   -6.3514 C.ar      1 <0>         0.0116
     35 Cl1       -14.3279    3.9970   -7.7198 Cl        1 <0>        -0.0393
     36 H2          1.1819   -0.8951   -3.3963 H         1 <0>         0.0719
     37 H3          2.1686   -1.3448   -4.8078 H         1 <0>         0.0738
     38 H4          1.7839    0.3655   -4.4994 H         1 <0>         0.0586
     39 H5          0.4921   -2.8450   -5.7084 H         1 <0>         0.1271
     40 H6         -1.5406   -3.0808   -7.0702 H         1 <0>         0.1220
     41 H7         -3.0322   -1.1745   -7.4104 H         1 <0>         0.1141
     42 H8         -1.9354    3.3374   -5.2867 H         1 <0>         0.1708
     43 H9          0.0596    1.9929   -4.4498 H         1 <0>         0.4188
     44 H10        -3.7862    2.9175   -7.1232 H         1 <0>         0.0768
     45 H11        -3.8443    1.2996   -7.8631 H         1 <0>         0.0733
     46 H12        -4.9483    0.4091   -5.8292 H         1 <0>         0.0726
     47 H13        -4.8902    2.0270   -5.0893 H         1 <0>         0.0732
     48 H14        -6.1850    2.2380   -7.5904 H         1 <0>         0.4001
     49 H15        -9.5575    1.8259   -4.8157 H         1 <0>         0.1029
     50 H16        -9.8603    3.3842   -5.6442 H         1 <0>         0.1003
     51 H17       -10.5214   -0.3061   -6.1955 H         1 <0>         0.0863
     52 H18       -11.3135    0.1632   -7.7317 H         1 <0>         0.0900
     53 H19       -10.1006    1.9180   -9.1714 H         1 <0>         0.1181
     54 H20        -8.4147    1.4237   -9.4614 H         1 <0>         0.0970
     55 H21       -10.8422   -0.4283   -9.4328 H         1 <0>         0.1341
     56 H22        -9.9649    0.1172  -10.8820 H         1 <0>         0.1398
     57 H23        -9.2061   -2.0127  -10.2070 H         1 <0>         0.4343
     58 H24        -9.8351   -1.8818   -7.8891 H         1 <0>         0.1334
     59 H25        -8.1731   -2.4685   -8.1353 H         1 <0>         0.1396
     60 H26        -7.3013   -0.1833   -7.7539 H         1 <0>         0.0978
     61 H27        -8.2681   -0.7275   -6.3611 H         1 <0>         0.1266
     62 H28       -10.9731    3.4189   -4.2365 H         1 <0>         0.1401
     63 H29       -11.3142    5.6745   -3.3197 H         1 <0>         0.1399
     64 H30       -12.9767    7.1808   -4.3293 H         1 <0>         0.1423
     65 H31       -14.3079    6.4423   -6.2605 H         1 <0>         0.1447
     66 H32        -7.9993   -0.9196   -9.9652 H         1 <0>         0.4276
@<TRIPOS>BOND
     1    1   36 1
     2    1   37 1
     3    1   38 1
     4    1    2 1
     5    2   10 ar
     6    2    3 ar
     7    3   39 1
     8    3    4 ar
     9    4   40 1
    10    4    5 ar
    11    5   41 1
    12    5    6 ar
    13    6   10 ar
    14    6    7 1
    15    7   11 1
    16    7    8 2
    17    8    9 1
    18    8   42 1
    19    9   43 1
    20    9   10 1
    21   11   12 1
    22   11   44 1
    23   11   45 1
    24   12   13 1
    25   12   46 1
    26   12   47 1
    27   13   14 am
    28   13   48 1
    29   14   15 2
    30   14   16 1
    31   16   17 1
    32   16   21 1
    33   16   18 1
    34   18   19 1
    35   18   49 1
    36   18   50 1
    37   19   20 1
    38   19   27 am
    39   20   21 1
    40   20   51 1
    41   20   52 1
    42   21   26 1
    43   21   22 1
    44   22   23 1
    45   22   53 1
    46   22   54 1
    47   23   24 1
    48   23   55 1
    49   23   56 1
    50   24   25 1
    51   24   57 1
    52   24   66 1
    53   25   26 1
    54   25   58 1
    55   25   59 1
    56   26   60 1
    57   26   61 1
    58   27   28 2
    59   27   29 1
    60   29   34 ar
    61   29   30 ar
    62   30   31 ar
    63   30   62 1
    64   31   32 ar
    65   31   63 1
    66   32   33 ar
    67   32   64 1
    68   33   34 ar
    69   33   65 1
    70   34   35 1
@<TRIPOS>MOLECULE
ZINC44714567
   76    80     0     0     0
SMALL
USER_CHARGES

@<TRIPOS>ATOM
      1 C1          0.1755   -1.8891   -1.6306 C.3       1 <0>        -0.1500
      2 C2         -0.8767   -2.0174   -0.5273 C.3       1 <0>        -0.1070
      3 C3         -1.4215   -0.6309   -0.1785 C.3       1 <0>        -0.0570
      4 H1         -0.5936    0.0323    0.0721 H         1 <0>         0.0996
      5 C4         -2.3530   -0.7394    1.0012 C.ar      1 <0>        -0.0875
      6 C5         -3.4800   -1.5357    0.9210 C.ar      1 <0>        -0.1057
      7 C6         -4.3344   -1.6352    2.0031 C.ar      1 <0>        -0.1160
      8 C7         -4.0615   -0.9388    3.1656 C.ar      1 <0>        -0.1138
      9 C8         -2.9340   -0.1431    3.2461 C.ar      1 <0>        -0.1176
     10 C9         -2.0773   -0.0470    2.1655 C.ar      1 <0>        -0.1117
     11 C10        -2.1713   -0.0737   -1.3610 C.2       1 <0>         0.5609
     12 O1         -2.7752   -0.8197   -2.1024 O.2       1 <0>        -0.5276
     13 N1         -2.1709    1.2537   -1.5946 N.am      1 <0>        -0.6164
     14 C11        -1.5733    2.3226   -0.7601 C.3       1 <0>         0.1160
     15 C12        -0.9627    3.3148   -1.7751 C.3       1 <0>        -0.1160
     16 H2         -1.0938    4.3402   -1.4294 H         1 <0>         0.1165
     17 C13        -1.7520    3.0826   -3.0743 C.3       1 <0>        -0.0718
     18 C14        -2.7626    1.9736   -2.7477 C.3       1 <0>         0.1063
     19 C15        -0.8149    2.6228   -4.1870 C.3       1 <0>        -0.1459
     20 C16        -1.6131    2.4536   -5.4828 C.3       1 <0>        -0.0101
     21 N2         -2.2427    3.7301   -5.8420 N.4       1 <0>        -0.5046
     22 C17        -3.2113    4.1189   -4.8099 C.3       1 <0>        -0.0102
     23 C18        -2.4807    4.3583   -3.4856 C.3       1 <0>        -0.1336
     24 C19         0.4993    3.0163   -1.9861 C.2       1 <0>         0.5147
     25 O2          0.9063    1.8781   -1.8870 O.2       1 <0>        -0.5147
     26 N3          1.3546    4.0141   -2.2850 N.am      1 <0>        -0.7302
     27 C20         2.7758    3.7239   -2.4902 C.3       1 <0>         0.1212
     28 C21         3.5196    5.0211   -2.8144 C.3       1 <0>        -0.0504
     29 C22         4.9815    4.7226   -3.0254 C.2       1 <0>        -0.1737
     30 C23         5.9393    4.7159   -2.0854 C.2       1 <0>         0.1027
     31 N4          7.1456    4.4004   -2.6496 N.pl3     1 <0>        -0.5844
     32 H3          7.9850    4.3341   -2.1680 H         1 <0>         0.4218
     33 C24         6.9919    4.1908   -3.9998 C.ar      1 <0>         0.1248
     34 C25         5.6272    4.3780   -4.2953 C.ar      1 <0>        -0.1025
     35 C26         5.1701    4.2246   -5.6019 C.ar      1 <0>        -0.0182
     36 C27         6.0722    3.8829   -6.6055 C.ar      1 <0>        -0.0537
     37 C28         7.4271    3.6964   -6.2976 C.ar      1 <0>        -0.0550
     38 C29         7.8780    3.8527   -5.0201 C.ar      1 <0>        -0.1201
     39 C30         5.6158    3.7215   -7.9532 C.1       1 <0>         0.2560
     40 N5          5.2538    3.5934   -9.0224 N.1       1 <0>        -0.4209
     41 C31         5.7192    5.0127   -0.6245 C.3       1 <0>        -0.1021
     42 H4          0.6308   -2.8625   -1.8134 H         1 <0>         0.0594
     43 H5         -0.2985   -1.5323   -2.5450 H         1 <0>         0.0498
     44 H6          0.9438   -1.1813   -1.3195 H         1 <0>         0.0583
     45 H7         -1.6924   -2.6513   -0.8750 H         1 <0>         0.0776
     46 H8         -0.4225   -2.4626    0.3579 H         1 <0>         0.0759
     47 H9         -3.6933   -2.0798    0.0128 H         1 <0>         0.1263
     48 H10        -5.2154   -2.2568    1.9402 H         1 <0>         0.1251
     49 H11        -4.7295   -1.0160    4.0108 H         1 <0>         0.1251
     50 H12        -2.7209    0.4013    4.1542 H         1 <0>         0.1255
     51 H13        -1.1944    0.5717    2.2297 H         1 <0>         0.1210
     52 H14        -2.3422    2.8139   -0.1639 H         1 <0>         0.0894
     53 H15        -0.7961    1.9118   -0.1156 H         1 <0>         0.0965
     54 H16        -2.8765    1.3013   -3.5981 H         1 <0>         0.0866
     55 H17        -3.7241    2.4071   -2.4728 H         1 <0>         0.0825
     56 H18        -0.0334    3.3680   -4.3357 H         1 <0>         0.0950
     57 H19        -0.3624    1.6703   -3.9113 H         1 <0>         0.1242
     58 H20        -0.9432    2.1410   -6.2838 H         1 <0>         0.1382
     59 H21        -2.3839    1.6966   -5.3382 H         1 <0>         0.1340
     60 H22        -1.5330    4.4431   -5.9210 H         1 <0>         0.4274
     61 H23        -3.7193    5.0338   -5.1149 H         1 <0>         0.1400
     62 H24        -3.9443    3.3225   -4.6814 H         1 <0>         0.1327
     63 H25        -3.2029    4.6292   -2.7154 H         1 <0>         0.1216
     64 H26        -1.7591    5.1659   -3.6088 H         1 <0>         0.0977
     65 H27         1.0290    4.9244   -2.3643 H         1 <0>         0.3995
     66 H28         3.1913    3.2837   -1.5837 H         1 <0>         0.0730
     67 H29         2.8879    3.0241   -3.3183 H         1 <0>         0.0714
     68 H30         3.1041    5.4613   -3.7208 H         1 <0>         0.0754
     69 H31         3.4075    5.7209   -1.9862 H         1 <0>         0.0796
     70 H32         4.1253    4.3689   -5.8342 H         1 <0>         0.1274
     71 H33         8.1218    3.4315   -7.0810 H         1 <0>         0.1381
     72 H34         8.9242    3.7046   -4.7969 H         1 <0>         0.1342
     73 H35         5.4869    4.0877   -0.0967 H         1 <0>         0.0829
     74 H36         6.6224    5.4543   -0.2033 H         1 <0>         0.0748
     75 H37         4.8891    5.7109   -0.5166 H         1 <0>         0.0873
     76 H38        -2.7173    3.6323   -6.7270 H         1 <0>         0.4342
@<TRIPOS>BOND
     1    1    2 1
     2    1   42 1
     3    1   43 1
     4    1   44 1
     5    2    3 1
     6    2   45 1
     7    2   46 1
     8    3    4 1
     9    3    5 1
    10    3   11 1
    11    5   10 ar
    12    5    6 ar
    13    6    7 ar
    14    6   47 1
    15    7    8 ar
    16    7   48 1
    17    8    9 ar
    18    8   49 1
    19    9   10 ar
    20    9   50 1
    21   10   51 1
    22   11   12 2
    23   11   13 am
    24   13   18 1
    25   13   14 1
    26   14   15 1
    27   14   52 1
    28   14   53 1
    29   15   16 1
    30   15   17 1
    31   15   24 1
    32   17   23 1
    33   17   18 1
    34   17   19 1
    35   18   54 1
    36   18   55 1
    37   19   20 1
    38   19   56 1
    39   19   57 1
    40   20   21 1
    41   20   58 1
    42   20   59 1
    43   21   22 1
    44   21   60 1
    45   21   76 1
    46   22   23 1
    47   22   61 1
    48   22   62 1
    49   23   63 1
    50   23   64 1
    51   24   25 2
    52   24   26 am
    53   26   27 1
    54   26   65 1
    55   27   28 1
    56   27   66 1
    57   27   67 1
    58   28   29 1
    59   28   68 1
    60   28   69 1
    61   29   34 1
    62   29   30 2
    63   30   31 1
    64   30   41 1
    65   31   32 1
    66   31   33 1
    67   33   38 ar
    68   33   34 ar
    69   34   35 ar
    70   35   36 ar
    71   35   70 1
    72   36   37 ar
    73   36   39 1
    74   37   38 ar
    75   37   71 1
    76   38   72 1
    77   39   40 3
    78   41   73 1
    79   41   74 1
    80   41   75 1
@<TRIPOS>MOLECULE
ZINC04348895
   38    40     0     0     0
SMALL
USER_CHARGES
5-hydroxy-2-(3-hydroxy-4-methoxy-phenyl)-7-methyl-chroman-4-one
@<TRIPOS>ATOM
      1 C1          7.6072    3.6584   -3.2748 C.3       1 <0>        -0.1229
      2 C2          6.7612    3.9331   -2.0583 C.ar      1 <0>         0.0016
      3 C3          7.3034    4.6270   -0.9919 C.ar      1 <0>        -0.1944
      4 C4          6.5338    4.8887    0.1311 C.ar      1 <0>         0.2074
      5 C5          5.2044    4.4455    0.1737 C.ar      1 <0>        -0.2884
      6 C6          4.6618    3.7345   -0.9103 C.ar      1 <0>         0.2004
      7 C7          5.4530    3.4880   -2.0221 C.ar      1 <0>        -0.1742
      8 O1          3.3834    3.2911   -0.8776 O.3       1 <0>        -0.2998
      9 C8          2.4575    3.9319   -0.0002 C.3       1 <0>         0.1495
     10 H1          2.2763    4.9504   -0.3436 H         1 <0>         0.0900
     11 C9          3.0418    3.9656    1.4196 C.3       1 <0>        -0.1828
     12 C10         4.3588    4.7175    1.3446 C.2       1 <0>         0.3980
     13 O2          4.6955    5.5025    2.2064 O.2       1 <0>        -0.4253
     14 C11         1.1599    3.1657    0.0080 C.ar      1 <0>        -0.1158
     15 C12         1.1751    1.7833    0.0004 C.ar      1 <0>        -0.0557
     16 C13        -0.0126    1.0758    0.0080 C.ar      1 <0>        -0.1960
     17 C14        -1.2218    1.7523    0.0174 C.ar      1 <0>         0.1146
     18 C15        -1.2371    3.1437    0.0304 C.ar      1 <0>         0.0765
     19 C16        -0.0431    3.8467    0.0228 C.ar      1 <0>        -0.0870
     20 O3         -2.4214    3.8121    0.0444 O.3       1 <0>        -0.4836
     21 O4         -2.3911    1.0578    0.0191 O.3       1 <0>        -0.3057
     22 C17        -2.2988   -0.3681    0.0109 C.3       1 <0>         0.0231
     23 O5          7.0624    5.5673    1.1795 O.3       1 <0>        -0.4793
     24 H2          8.1237    2.7065   -3.1507 H         1 <0>         0.0818
     25 H3          6.9700    3.6136   -4.1580 H         1 <0>         0.0756
     26 H4          8.3400    4.4563   -3.3955 H         1 <0>         0.0751
     27 H5          8.3280    4.9657   -1.0341 H         1 <0>         0.1388
     28 H6          5.0455    2.9464   -2.8629 H         1 <0>         0.1416
     29 H7          2.4018    4.4290    2.0325 H         1 <0>         0.1019
     30 H8          3.2140    2.9494    1.7744 H         1 <0>         0.1145
     31 H9          2.1169    1.2548   -0.0111 H         1 <0>         0.1347
     32 H10         0.0021   -0.0041    0.0020 H         1 <0>         0.1376
     33 H11        -0.0522    4.9266    0.0280 H         1 <0>         0.1407
     34 H12        -2.7720    4.0096   -0.8348 H         1 <0>         0.3893
     35 H13        -3.3009   -0.7971    0.0132 H         1 <0>         0.1039
     36 H14        -1.7668   -0.6926   -0.8834 H         1 <0>         0.0578
     37 H15        -1.7584   -0.7024    0.8965 H         1 <0>         0.0580
     38 H16         7.4813    5.0020    1.8428 H         1 <0>         0.3984
@<TRIPOS>BOND
     1    1    2 1
     2    1   24 1
     3    1   25 1
     4    1   26 1
     5    2    7 ar
     6    2    3 ar
     7    3    4 ar
     8    3   27 1
     9    4    5 ar
    10    4   23 1
    11    5   12 1
    12    5    6 ar
    13    6    7 ar
    14    6    8 1
    15    7   28 1
    16    8    9 1
    17    9   10 1
    18    9   11 1
    19    9   14 1
    20   11   12 1
    21   11   29 1
    22   11   30 1
    23   12   13 2
    24   14   19 ar
    25   14   15 ar
    26   15   16 ar
    27   15   31 1
    28   16   17 ar
    29   16   32 1
    30   17   18 ar
    31   17   21 1
    32   18   19 ar
    33   18   20 1
    34   19   33 1
    35   20   34 1
    36   21   22 1
    37   22   35 1
    38   22   36 1
    39   22   37 1
    40   23   38 1
@<TRIPOS>MOLECULE
ZINC19996935
   32    34     0     0     0
SMALL
USER_CHARGES
4-amino-2-(5-chloro-2-methoxy-phenyl)isoindoline-1,3-dione
@<TRIPOS>ATOM
      1 C1         -1.6098    5.5045    3.6259 C.3       1 <0>         0.0196
      2 O1         -1.2224    4.8381    2.4226 O.3       1 <0>        -0.3066
      3 C2         -1.5773    5.4267    1.2492 C.ar      1 <0>         0.1562
      4 C3         -2.2831    6.6190    1.2562 C.ar      1 <0>        -0.1896
      5 C4         -2.6433    7.2165    0.0628 C.ar      1 <0>        -0.0507
      6 C5         -2.3015    6.6263   -1.1412 C.ar      1 <0>        -0.0656
      7 C6         -1.5926    5.4390   -1.1559 C.ar      1 <0>        -0.0499
      8 C7         -1.2325    4.8321    0.0381 C.ar      1 <0>         0.0973
      9 N1         -0.5172    3.6247    0.0257 N.am      1 <0>        -0.5244
     10 C8          0.8251    3.5353    0.0127 C.2       1 <0>         0.5769
     11 O2          1.5988    4.4717    0.0098 O.2       1 <0>        -0.4536
     12 C9          1.1996    2.1058    0.0019 C.ar      1 <0>        -0.0826
     13 C10         2.4023    1.4213   -0.0133 C.ar      1 <0>        -0.1042
     14 C11         2.4093    0.0328   -0.0203 C.ar      1 <0>        -0.0423
     15 C12         1.2268   -0.6752   -0.0133 C.ar      1 <0>        -0.1775
     16 C13         0.0021   -0.0041    0.0020 C.ar      1 <0>         0.3102
     17 C14        -0.0168    1.3896    0.0097 C.ar      1 <0>        -0.2539
     18 C15        -1.0837    2.4047    0.0194 C.2       1 <0>         0.5910
     19 O3         -2.2774    2.1777    0.0234 O.2       1 <0>        -0.4768
     20 N2         -1.1865   -0.7191    0.0100 N.pl3     1 <0>        -0.8756
     21 Cl1        -2.7579    7.3812   -2.6364 Cl        1 <0>        -0.0551
     22 H1         -1.2622    4.9253    4.4940 H         1 <0>         0.1076
     23 H2         -2.7057    5.5933    3.6593 H         1 <0>         0.0627
     24 H3         -1.1597    6.5079    3.6505 H         1 <0>         0.0632
     25 H4         -2.5516    7.0819    2.1943 H         1 <0>         0.1493
     26 H5         -3.1931    8.1461    0.0702 H         1 <0>         0.1464
     27 H6         -1.3230    4.9824   -2.0968 H         1 <0>         0.1456
     28 H7          3.3345    1.9666   -0.0189 H         1 <0>         0.1392
     29 H8          3.3501   -0.4974   -0.0318 H         1 <0>         0.1423
     30 H9          1.2474   -1.7549   -0.0193 H         1 <0>         0.1395
     31 H10        -2.1488   -0.1863    0.0220 H         1 <0>         0.4361
     32 H11        -1.1668   -1.8189    0.0043 H         1 <0>         0.4253
@<TRIPOS>BOND
     1    1    2 1
     2    1   22 1
     3    1   23 1
     4    1   24 1
     5    2    3 1
     6    3    8 ar
     7    3    4 ar
     8    4    5 ar
     9    4   25 1
    10    5    6 ar
    11    5   26 1
    12    6    7 ar
    13    6   21 1
    14    7    8 ar
    15    7   27 1
    16    8    9 1
    17    9   18 am
    18    9   10 am
    19   10   11 2
    20   10   12 1
    21   12   17 ar
    22   12   13 ar
    23   13   14 ar
    24   13   28 1
    25   14   15 ar
    26   14   29 1
    27   15   16 ar
    28   15   30 1
    29   16   17 ar
    30   16   20 1
    31   17   18 1
    32   18   19 2
    33   20   31 1
    34   20   32 1
@<TRIPOS>MOLECULE
ZINC40267909
   40    42     0     0     0
SMALL
USER_CHARGES

@<TRIPOS>ATOM
      1 C1          0.5741    1.0947    0.2038 C.3       1 <0>        -0.1156
      2 C2          0.1970   -0.3565    0.0520 C.2       1 <0>        -0.1490
      3 C3          1.1314   -1.2681   -0.0566 C.2       1 <0>        -0.1654
      4 C4         -1.2550   -0.7588    0.0252 C.3       1 <0>         0.1290
      5 N1         -1.7423   -0.9210    1.3972 N.am      1 <0>        -0.4912
      6 C5         -1.6505   -2.1279    2.0180 C.2       1 <0>         0.1538
      7 C6         -2.1068   -2.3120    3.3274 C.2       1 <0>        -0.2625
      8 C7         -1.9477   -3.6592    3.8729 C.2       1 <0>        -0.0406
      9 C8         -1.3817   -4.5849    3.0690 C.2       1 <0>        -0.2254
     10 S1         -1.0335   -3.7270    1.5603 S.3       1 <0>         0.1640
     11 C9         -1.1201   -6.0179    3.4143 C.3       1 <0>         0.1472
     12 O1         -1.2764   -6.1657    4.8346 O.3       1 <0>        -0.3554
     13 C10        -2.4791   -5.5800    5.3401 C.3       1 <0>         0.1134
     14 C11        -2.3869   -4.0523    5.2812 C.3       1 <0>        -0.0969
     15 C12        -2.6867   -6.0200    6.7907 C.3       1 <0>        -0.1421
     16 C13        -3.6656   -6.0495    4.4960 C.3       1 <0>        -0.1845
     17 C14        -2.6688   -1.1544    3.9562 C.2       1 <0>         0.5479
     18 N2         -2.7306   -0.0096    3.3007 N.2       1 <0>        -0.6184
     19 C15        -2.2801    0.1279    2.0557 C.2       1 <0>         0.6739
     20 O2         -2.3585    1.2119    1.5021 O.2       1 <0>        -0.5201
     21 N3         -3.1444   -1.2350    5.2427 N.pl3     1 <0>        -0.8161
     22 H1          1.6599    1.1900    0.2018 H         1 <0>         0.0631
     23 H2          0.1576    1.6670   -0.6251 H         1 <0>         0.0716
     24 H3          0.1776    1.4766    1.1445 H         1 <0>         0.0692
     25 H4          0.8612   -2.3081   -0.1654 H         1 <0>         0.0991
     26 H5          2.1720   -0.9798   -0.0374 H         1 <0>         0.1091
     27 H6         -1.8368    0.0135   -0.4781 H         1 <0>         0.1159
     28 H7         -1.3610   -1.7014   -0.5118 H         1 <0>         0.0940
     29 H8         -1.8340   -6.6583    2.8962 H         1 <0>         0.0810
     30 H9         -0.1044   -6.2874    3.1250 H         1 <0>         0.1141
     31 H10        -1.6547   -3.6993    6.0074 H         1 <0>         0.0966
     32 H11        -3.3618   -3.6159    5.4983 H         1 <0>         0.0924
     33 H12        -1.8403   -5.6925    7.3944 H         1 <0>         0.0679
     34 H13        -3.6031   -5.5746    7.1779 H         1 <0>         0.0750
     35 H14        -2.7646   -7.1064    6.8333 H         1 <0>         0.0705
     36 H15        -3.7402   -7.1357    4.5464 H         1 <0>         0.0705
     37 H16        -4.5835   -5.6041    4.8798 H         1 <0>         0.0707
     38 H17        -3.5186   -5.7430    3.4603 H         1 <0>         0.0648
     39 H18        -2.9552   -2.0191    5.7815 H         1 <0>         0.4135
     40 H19        -3.6695   -0.5079    5.6122 H         1 <0>         0.4149
@<TRIPOS>BOND
     1    1    2 1
     2    1   22 1
     3    1   23 1
     4    1   24 1
     5    2    3 2
     6    2    4 1
     7    3   25 1
     8    3   26 1
     9    4    5 1
    10    4   27 1
    11    4   28 1
    12    5   19 am
    13    5    6 1
    14    6   10 1
    15    6    7 2
    16    7    8 1
    17    7   17 1
    18    8   14 1
    19    8    9 2
    20    9   10 1
    21    9   11 1
    22   11   12 1
    23   11   29 1
    24   11   30 1
    25   12   13 1
    26   13   14 1
    27   13   15 1
    28   13   16 1
    29   14   31 1
    30   14   32 1
    31   15   33 1
    32   15   34 1
    33   15   35 1
    34   16   36 1
    35   16   37 1
    36   16   38 1
    37   17   18 2
    38   17   21 1
    39   18   19 1
    40   19   20 2
    41   21   39 1
    42   21   40 1
@<TRIPOS>MOLECULE
ZINC46906989
   43    45     0     0     0
SMALL
USER_CHARGES

@<TRIPOS>ATOM
      1 C1         -0.3858   -2.7976    5.7856 C.3       1 <0>        -0.0883
      2 C2         -0.2747   -3.2425    4.3501 C.2       1 <0>         0.0763
      3 C3         -1.2984   -3.4073    3.4939 C.2       1 <0>        -0.2831
      4 C4         -0.7693   -3.8307    2.2540 C.2       1 <0>         0.3516
      5 N1          0.5306   -3.9124    2.3788 N.2       1 <0>        -0.3592
      6 O1          0.8638   -3.5374    3.7031 O.3       1 <0>        -0.0723
      7 N2         -1.5027   -4.1121    1.1014 N.am      1 <0>        -0.6453
      8 C5         -2.8446   -3.9869    1.1093 C.2       1 <0>         0.7132
      9 O2         -3.4158   -3.6287    2.1209 O.2       1 <0>        -0.5538
     10 N3         -3.5533   -4.2589   -0.0044 N.am      1 <0>        -0.7223
     11 C6         -5.0120   -4.1228    0.0041 C.3       1 <0>         0.1632
     12 H1         -5.3126   -3.3040    0.6578 H         1 <0>         0.0970
     13 C7         -5.5398   -3.8892   -1.4299 C.3       1 <0>        -0.1272
     14 C8         -6.4768   -5.1042   -1.7078 C.3       1 <0>        -0.0921
     15 H2         -7.2030   -4.9721   -2.5098 H         1 <0>         0.1009
     16 C9         -5.5088   -6.3174   -1.8578 C.3       1 <0>        -0.1217
     17 C10        -4.9646   -6.5617   -0.4317 C.3       1 <0>        -0.1171
     18 C11        -5.6796   -5.4559    0.4606 C.3       1 <0>        -0.0726
     19 C12        -7.0645   -5.3513   -0.2737 C.3       1 <0>        -0.0621
     20 C13        -7.8862   -4.1600    0.2228 C.3       1 <0>        -0.1408
     21 C14        -7.8559   -6.6584   -0.1952 C.3       1 <0>        -0.1368
     22 C15        -5.7115   -5.7055    1.9697 C.3       1 <0>        -0.1148
     23 H3          0.6087   -2.7497    6.2292 H         1 <0>         0.0853
     24 H4         -0.8493   -1.8118    5.8256 H         1 <0>         0.0968
     25 H5         -0.9972   -3.5093    6.3403 H         1 <0>         0.0968
     26 H6         -2.3428   -3.2447    3.7154 H         1 <0>         0.1840
     27 H7         -1.0470   -4.3980    0.2942 H         1 <0>         0.4168
     28 H8         -3.0976   -4.5447   -0.8116 H         1 <0>         0.3990
     29 H9         -6.1017   -2.9566   -1.4808 H         1 <0>         0.0788
     30 H10        -4.7140   -3.8756   -2.1412 H         1 <0>         0.0726
     31 H11        -6.0504   -7.1940   -2.2132 H         1 <0>         0.0666
     32 H12        -4.6938   -6.0713   -2.5385 H         1 <0>         0.0628
     33 H13        -5.2387   -7.5584   -0.0860 H         1 <0>         0.0645
     34 H14        -3.8821   -6.4358   -0.4113 H         1 <0>         0.0628
     35 H15        -8.7323   -3.9985   -0.4452 H         1 <0>         0.0571
     36 H16        -8.2517   -4.3648    1.2291 H         1 <0>         0.0580
     37 H17        -7.2601   -3.2679    0.2382 H         1 <0>         0.0588
     38 H18        -7.2088   -7.4919   -0.4686 H         1 <0>         0.0601
     39 H19        -8.2221   -6.8010    0.8214 H         1 <0>         0.0558
     40 H20        -8.7006   -6.6135   -0.8827 H         1 <0>         0.0556
     41 H21        -6.2515   -4.8957    2.4606 H         1 <0>         0.0610
     42 H22        -6.2140   -6.6516    2.1710 H         1 <0>         0.0548
     43 H23        -4.6919   -5.7469    2.3528 H         1 <0>         0.0594
@<TRIPOS>BOND
     1    1    2 1
     2    1   23 1
     3    1   24 1
     4    1   25 1
     5    2    6 1
     6    2    3 2
     7    3    4 1
     8    3   26 1
     9    4    5 2
    10    4    7 1
    11    5    6 1
    12    7    8 am
    13    7   27 1
    14    8    9 2
    15    8   10 am
    16   10   11 1
    17   10   28 1
    18   11   12 1
    19   11   18 1
    20   11   13 1
    21   13   14 1
    22   13   29 1
    23   13   30 1
    24   14   15 1
    25   14   19 1
    26   14   16 1
    27   16   17 1
    28   16   31 1
    29   16   32 1
    30   17   18 1
    31   17   33 1
    32   17   34 1
    33   18   19 1
    34   18   22 1
    35   19   20 1
    36   19   21 1
    37   20   35 1
    38   20   36 1
    39   20   37 1
    40   21   38 1
    41   21   39 1
    42   21   40 1
    43   22   41 1
    44   22   42 1
    45   22   43 1
@<TRIPOS>MOLECULE
ZINC34925731
   34    37     0     0     0
SMALL
USER_CHARGES

@<TRIPOS>ATOM
      1 C1         -0.0184    1.5028    0.0103 C.3       1 <0>        -0.1013
      2 C2          0.0021   -0.0041    0.0020 C.2       1 <0>         0.1980
      3 C3         -1.2576   -0.7477    0.0040 C.ar      1 <0>        -0.1100
      4 C4         -2.4939   -0.0985    0.0133 C.ar      1 <0>        -0.0715
      5 C5         -3.6458   -0.8341    0.0144 C.ar      1 <0>        -0.1094
      6 C6         -3.6059   -2.2224    0.0063 C.ar      1 <0>        -0.0861
      7 C7         -2.4014   -2.8907   -0.0031 C.ar      1 <0>        -0.0823
      8 C8         -1.2129   -2.1614   -0.0044 C.ar      1 <0>         0.0157
      9 C9          0.0999   -2.8110   -0.0146 C.2       1 <0>         0.1631
     10 N1          0.4978   -4.0667   -0.0243 N.2       1 <0>        -0.2512
     11 N2          1.7834   -4.1157   -0.0312 N.2       1 <0>        -0.2674
     12 C10         2.2824   -2.8957   -0.0264 C.2       1 <0>         0.2801
     13 N3          1.2266   -2.0252   -0.0157 N.pl3     1 <0>        -0.3172
     14 N4          1.1386   -0.6340   -0.0122 N.2       1 <0>        -0.2624
     15 C11         3.7154   -2.5351   -0.0312 C.ar      1 <0>        -0.0939
     16 C12         4.1111   -1.2359    0.2935 C.ar      1 <0>        -0.0342
     17 C13         5.4482   -0.9029    0.2886 C.ar      1 <0>        -0.2022
     18 C14         6.4031   -1.8591   -0.0392 C.ar      1 <0>         0.2375
     19 C15         6.0124   -3.1536   -0.3635 C.ar      1 <0>        -0.2022
     20 C16         4.6772   -3.4944   -0.3548 C.ar      1 <0>        -0.0186
     21 N5          7.7566   -1.5186   -0.0433 N.pl3     1 <0>        -0.8715
     22 H1          1.0042    1.8801    0.0026 H         1 <0>         0.0915
     23 H2         -0.5455    1.8639   -0.8728 H         1 <0>         0.0994
     24 H3         -0.5286    1.8543    0.9071 H         1 <0>         0.0995
     25 H4         -2.5396    0.9805    0.0200 H         1 <0>         0.1434
     26 H5         -4.6003   -0.3288    0.0220 H         1 <0>         0.1379
     27 H6         -4.5286   -2.7836    0.0077 H         1 <0>         0.1398
     28 H7         -2.3778   -3.9704   -0.0097 H         1 <0>         0.1461
     29 H8          3.3699   -0.4927    0.5479 H         1 <0>         0.1342
     30 H9          5.7548    0.1018    0.5393 H         1 <0>         0.1268
     31 H10         6.7564   -3.8938   -0.6180 H         1 <0>         0.1296
     32 H11         4.3747   -4.5012   -0.6024 H         1 <0>         0.1368
     33 H12         8.0303   -0.6158    0.1824 H         1 <0>         0.4005
     34 H13         8.4236   -2.1848   -0.2718 H         1 <0>         0.4011
@<TRIPOS>BOND
     1    1    2 1
     2    1   22 1
     3    1   23 1
     4    1   24 1
     5    2   14 2
     6    2    3 1
     7    3    8 ar
     8    3    4 ar
     9    4    5 ar
    10    4   25 1
    11    5    6 ar
    12    5   26 1
    13    6    7 ar
    14    6   27 1
    15    7    8 ar
    16    7   28 1
    17    8    9 1
    18    9   13 1
    19    9   10 2
    20   10   11 1
    21   11   12 2
    22   12   13 1
    23   12   15 1
    24   13   14 1
    25   15   20 ar
    26   15   16 ar
    27   16   17 ar
    28   16   29 1
    29   17   18 ar
    30   17   30 1
    31   18   19 ar
    32   18   21 1
    33   19   20 ar
    34   19   31 1
    35   20   32 1
    36   21   33 1
    37   21   34 1
@<TRIPOS>MOLECULE
ZINC66087966
   29    30     0     0     0
SMALL
USER_CHARGES

@<TRIPOS>ATOM
      1 C1         -0.0103    1.3708   -0.0198 C.ar      1 <0>        -0.1035
      2 C2          1.1716    2.0878    0.0086 C.ar      1 <0>        -0.0923
      3 C3          2.3830    1.4231    0.0281 C.ar      1 <0>        -0.1040
      4 C4          2.4131    0.0397    0.0197 C.ar      1 <0>        -0.0151
      5 C5          1.2303   -0.6771   -0.0083 C.ar      1 <0>        -0.0720
      6 C6          0.0191   -0.0111   -0.0283 C.ar      1 <0>        -0.0987
      7 C7          1.2621   -2.1837   -0.0180 C.3       1 <0>        -0.0344
      8 H1          2.1670   -2.6322   -0.4282 H         1 <0>         0.1576
      9 C8         -0.0597   -2.9168   -0.2553 C.3       1 <0>        -0.0026
     10 H2         -0.9524   -2.3093   -0.4043 H         1 <0>         0.1755
     11 C9          0.5741   -2.9124    1.1381 C.3       1 <0>         0.0006
     12 C10        -0.0683   -2.0881    2.1747 C.1       1 <0>         0.2288
     13 N1         -0.5641   -1.4519    2.9747 N.1       1 <0>        -0.3551
     14 C11         1.1990   -4.1954    1.6222 C.2       1 <0>         0.3397
     15 C12         0.4392   -5.3404    1.7119 C.2       1 <0>        -0.1271
     16 C13         1.0329   -6.5595    2.1719 C.1       1 <0>         0.2648
     17 N2          1.5040   -7.5267    2.5368 N.1       1 <0>        -0.4048
     18 C14        -0.9448   -5.3118    1.3451 C.1       1 <0>         0.2638
     19 N3         -2.0426   -5.2892    1.0541 N.1       1 <0>        -0.3990
     20 N4          2.5129   -4.2225    1.9704 N.pl3     1 <0>        -0.8015
     21 C15        -0.0121   -4.1736   -1.0200 C.1       1 <0>         0.2089
     22 N5          0.0246   -5.1436   -1.6101 N.1       1 <0>        -0.3623
     23 Cl1         3.9345   -0.7960    0.0436 Cl        1 <0>        -0.0595
     24 H3         -0.9569    1.8906   -0.0309 H         1 <0>         0.1370
     25 H4          1.1480    3.1675    0.0152 H         1 <0>         0.1387
     26 H5          3.3061    1.9833    0.0496 H         1 <0>         0.1413
     27 H6         -0.9044   -0.5706   -0.0506 H         1 <0>         0.1344
     28 H7          3.0270   -3.4002    1.9880 H         1 <0>         0.4197
     29 H8          2.9362   -5.0642    2.2013 H         1 <0>         0.4213
@<TRIPOS>BOND
     1    1    6 ar
     2    1    2 ar
     3    1   24 1
     4    2    3 ar
     5    2   25 1
     6    3    4 ar
     7    3   26 1
     8    4    5 ar
     9    4   23 1
    10    5    6 ar
    11    5    7 1
    12    6   27 1
    13    7    8 1
    14    7   11 1
    15    7    9 1
    16    9   10 1
    17    9   11 1
    18    9   21 1
    19   11   12 1
    20   11   14 1
    21   12   13 3
    22   14   15 2
    23   14   20 1
    24   15   16 1
    25   15   18 1
    26   16   17 3
    27   18   19 3
    28   20   28 1
    29   20   29 1
    30   21   22 3
@<TRIPOS>MOLECULE
ZINC37725362
   40    41     0     0     0
SMALL
USER_CHARGES

@<TRIPOS>ATOM
      1 C1         -0.0184    1.5028    0.0103 C.3       1 <0>        -0.0772
      2 C2          0.0021   -0.0041    0.0020 C.2       1 <0>         0.2008
      3 N1          0.0083   -0.7718   -1.0535 N.2       1 <0>        -0.2810
      4 N2          0.0272   -2.0056   -0.6913 N.2       1 <0>        -0.2441
      5 C3          0.0340   -2.0810    0.6117 C.2       1 <0>         0.1382
      6 N3          0.0234   -0.8129    1.0889 N.pl3     1 <0>        -0.4747
      7 C4          0.0303   -0.4001    2.4945 C.3       1 <0>         0.0637
      8 C5          0.0555   -3.3442    1.4331 C.3       1 <0>         0.1517
      9 O1          1.4094   -3.7242    1.6873 O.3       1 <0>        -0.3356
     10 C6          1.6067   -4.8511    2.4211 C.ar      1 <0>         0.1192
     11 C7          0.5192   -5.5792    2.8819 C.ar      1 <0>        -0.1851
     12 C8          0.7218   -6.7241    3.6274 C.ar      1 <0>        -0.0358
     13 C9          2.0082   -7.1451    3.9148 C.ar      1 <0>        -0.1149
     14 C10         3.0937   -6.4204    3.4568 C.ar      1 <0>        -0.0385
     15 C11         2.8954   -5.2780    2.7054 C.ar      1 <0>        -0.1428
     16 C12         4.0784   -4.4928    2.2005 C.3       1 <0>        -0.0933
     17 C13         4.3948   -3.3607    3.1799 C.3       1 <0>         0.0335
     18 H1          4.5413   -3.7740    4.1778 H         1 <0>         0.1443
     19 C14         5.6692   -2.6414    2.7336 C.3       1 <0>        -0.1842
     20 N4          3.2773   -2.4075    3.2040 N.4       1 <0>        -0.6369
     21 Br1         2.2826   -8.7130    4.9358 Br        1 <0>        -0.0193
     22 H2          1.0042    1.8801    0.0026 H         1 <0>         0.0932
     23 H3         -0.5455    1.8639   -0.8728 H         1 <0>         0.1055
     24 H4         -0.5286    1.8543    0.9071 H         1 <0>         0.0833
     25 H5         -0.9955   -0.3127    2.8526 H         1 <0>         0.0964
     26 H6          0.5605   -1.1441    3.0890 H         1 <0>         0.0751
     27 H7          0.5311    0.5635    2.5877 H         1 <0>         0.1035
     28 H8         -0.4571   -3.1710    2.3794 H         1 <0>         0.0926
     29 H9         -0.4491   -4.1413    0.8871 H         1 <0>         0.1151
     30 H10        -0.4850   -5.2508    2.6581 H         1 <0>         0.1471
     31 H11        -0.1244   -7.2910    3.9866 H         1 <0>         0.1480
     32 H12         4.0969   -6.7505    3.6825 H         1 <0>         0.1500
     33 H13         4.9424   -5.1519    2.1156 H         1 <0>         0.1251
     34 H14         3.8447   -4.0723    1.2224 H         1 <0>         0.1061
     35 H15         5.5227   -2.2282    1.7357 H         1 <0>         0.0833
     36 H16         5.8946   -1.8349    3.4313 H         1 <0>         0.0849
     37 H17         6.4984   -3.3487    2.7157 H         1 <0>         0.1105
     38 H18         3.1417   -2.0249    2.2802 H         1 <0>         0.4325
     39 H19         2.4369   -2.8819    3.4983 H         1 <0>         0.4275
     40 H20         3.4860   -1.6609    3.8499 H         1 <0>         0.4324
@<TRIPOS>BOND
     1    1    2 1
     2    1   22 1
     3    1   23 1
     4    1   24 1
     5    2    6 1
     6    2    3 2
     7    3    4 1
     8    4    5 2
     9    5    6 1
    10    5    8 1
    11    6    7 1
    12    7   25 1
    13    7   26 1
    14    7   27 1
    15    8    9 1
    16    8   28 1
    17    8   29 1
    18    9   10 1
    19   10   15 ar
    20   10   11 ar
    21   11   12 ar
    22   11   30 1
    23   12   13 ar
    24   12   31 1
    25   13   14 ar
    26   13   21 1
    27   14   15 ar
    28   14   32 1
    29   15   16 1
    30   16   17 1
    31   16   33 1
    32   16   34 1
    33   17   18 1
    34   17   19 1
    35   17   20 1
    36   19   35 1
    37   19   36 1
    38   19   37 1
    39   20   38 1
    40   20   39 1
    41   20   40 1
@<TRIPOS>MOLECULE
ZINC40338334
   45    47     0     0     0
SMALL
USER_CHARGES

@<TRIPOS>ATOM
      1 C1         -0.4931    1.5426    0.2912 C.3       1 <0>        -0.1323
      2 C2         -0.3046    0.0578    0.1156 C.ar      1 <0>        -0.0395
      3 C3         -0.5000   -0.5205   -1.1255 C.ar      1 <0>        -0.0940
      4 C4         -0.3281   -1.8807   -1.2899 C.ar      1 <0>        -0.1287
      5 C5          0.0416   -2.6684   -0.2068 C.ar      1 <0>         0.1975
      6 C6          0.2370   -2.0845    1.0381 C.ar      1 <0>        -0.0641
      7 C7          0.0689   -0.7224    1.1943 C.ar      1 <0>        -0.6415
      8 S1          0.3236    0.0206    2.7715 S.o2      1 <0>         2.6860
      9 O1          1.1713   -0.8558    3.5012 O.2       1 <0>        -0.9354
     10 O2          0.6595    1.3801    2.5306 O.2       1 <0>        -0.9337
     11 N1         -1.1369    0.0252    3.5522 N.pl3     1 <0>        -1.0119
     12 C8         -2.0403    1.1825    3.4598 C.3       1 <0>         0.0901
     13 C9         -3.4342    0.6806    3.0688 C.3       1 <0>        -0.0176
     14 N2         -3.8665   -0.3512    4.0198 N.4       1 <0>        -0.3528
     15 C10        -2.9841   -1.5210    3.9238 C.3       1 <0>        -0.0217
     16 C11        -1.5703   -1.1304    4.3526 C.3       1 <0>         0.0917
     17 C12        -5.2451   -0.7533    3.7103 C.3       1 <0>        -0.0848
     18 C13        -6.3348   -0.3700    4.7135 C.3       1 <0>        -0.1506
     19 C14        -5.8831   -1.8269    4.5941 C.3       1 <0>        -0.1550
     20 C15         0.6376   -2.9351    2.2158 C.3       1 <0>        -0.1316
     21 N3          0.2159   -4.0447   -0.3695 N.pl3     1 <0>        -0.8735
     22 H1          0.4725    2.0428    0.2164 H         1 <0>         0.0960
     23 H2         -1.1583    1.9188   -0.4859 H         1 <0>         0.0754
     24 H3         -0.9297    1.7402    1.2702 H         1 <0>         0.0640
     25 H4         -0.7877    0.0924   -1.9669 H         1 <0>         0.1354
     26 H5         -0.4812   -2.3317   -2.2592 H         1 <0>         0.1332
     27 H6         -2.0899    1.6864    4.4251 H         1 <0>         0.1055
     28 H7         -1.6737    1.8737    2.7009 H         1 <0>         0.1401
     29 H8         -4.1389    1.5120    3.0894 H         1 <0>         0.1469
     30 H9         -3.3999    0.2580    2.0647 H         1 <0>         0.1355
     31 H10        -3.3571   -2.3119    4.5745 H         1 <0>         0.1435
     32 H11        -2.9634   -1.8770    2.8938 H         1 <0>         0.1358
     33 H12        -0.8932   -1.9677    4.1837 H         1 <0>         0.1357
     34 H13        -1.5717   -0.8641    5.4096 H         1 <0>         0.1048
     35 H14        -5.5098   -0.7490    2.6530 H         1 <0>         0.1759
     36 H15        -6.0289    0.1804    5.6032 H         1 <0>         0.1209
     37 H16        -7.3169   -0.1134    4.3162 H         1 <0>         0.1345
     38 H17        -6.5680   -2.5288    4.1182 H         1 <0>         0.1340
     39 H18        -5.2800   -2.2350    5.4051 H         1 <0>         0.1200
     40 H19         1.7211   -2.9082    2.3316 H         1 <0>         0.0962
     41 H20         0.1659   -2.5495    3.1196 H         1 <0>         0.0737
     42 H21         0.3155   -3.9628    2.0480 H         1 <0>         0.0689
     43 H22         0.0788   -4.4515   -1.2394 H         1 <0>         0.4042
     44 H23         0.4740   -4.5937    0.3874 H         1 <0>         0.4021
     45 H24        -3.8295    0.0204    4.9572 H         1 <0>         0.4212
@<TRIPOS>BOND
     1    1    2 1
     2    1   22 1
     3    1   23 1
     4    1   24 1
     5    2    7 ar
     6    2    3 ar
     7    3    4 ar
     8    3   25 1
     9    4    5 ar
    10    4   26 1
    11    5    6 ar
    12    5   21 1
    13    6    7 ar
    14    6   20 1
    15    7    8 1
    16    8    9 2
    17    8   10 2
    18    8   11 1
    19   11   16 1
    20   11   12 1
    21   12   13 1
    22   12   27 1
    23   12   28 1
    24   13   14 1
    25   13   29 1
    26   13   30 1
    27   14   15 1
    28   14   17 1
    29   14   45 1
    30   15   16 1
    31   15   31 1
    32   15   32 1
    33   16   33 1
    34   16   34 1
    35   17   19 1
    36   17   18 1
    37   17   35 1
    38   18   19 1
    39   18   36 1
    40   18   37 1
    41   19   38 1
    42   19   39 1
    43   20   40 1
    44   20   41 1
    45   20   42 1
    46   21   43 1
    47   21   44 1
@<TRIPOS>MOLECULE
ZINC44930252
   45    46     0     0     0
SMALL
USER_CHARGES

@<TRIPOS>ATOM
      1 C1         -0.0184    1.5028    0.0103 C.3       1 <0>        -0.1190
      2 C2          0.0021   -0.0041    0.0020 C.ar      1 <0>        -0.1084
      3 C3          0.0057   -0.6877   -1.2000 C.ar      1 <0>        -0.0606
      4 C4          0.0240   -2.0688   -1.2103 C.ar      1 <0>        -0.1957
      5 C5          0.0391   -2.7702   -0.0132 C.ar      1 <0>         0.1369
      6 C6          0.0359   -2.0821    1.1912 C.ar      1 <0>        -0.1714
      7 C7          0.0229   -0.7005    1.1961 C.ar      1 <0>        -0.0700
      8 C8          0.0523   -2.8407    2.4932 C.3       1 <0>         0.1474
      9 H1          0.6532   -3.7431    2.3804 H         1 <0>         0.1353
     10 C9         -1.3779   -3.2251    2.8776 C.3       1 <0>        -0.0553
     11 N1         -1.3619   -3.9646    4.1468 N.4       1 <0>        -0.4996
     12 C10        -2.7351   -4.3336    4.5158 C.3       1 <0>         0.0679
     13 C11        -3.5846   -3.0648    4.5723 C.3       1 <0>        -0.1583
     14 C12        -4.7529   -3.2430    5.5818 C.3       1 <0>        -0.5598
     15 S1         -3.8704   -4.1697    6.9133 S.o2      1 <0>         2.3780
     16 O1         -3.1409   -3.2522    7.7166 O.2       1 <0>        -0.9052
     17 O2         -4.7737   -5.0783    7.5279 O.2       1 <0>        -0.9003
     18 C13        -2.6974   -5.1075    5.8480 C.3       1 <0>        -0.6246
     19 C14        -3.3026   -5.2517    3.4314 C.3       1 <0>        -0.1846
     20 O3          0.6159   -2.0180    3.5168 O.3       1 <0>        -0.5475
     21 O4          0.0567   -4.1291   -0.0207 O.3       1 <0>        -0.3255
     22 C15         0.0584   -4.7708   -1.2975 C.3       1 <0>         0.0236
     23 H2          1.0042    1.8801    0.0026 H         1 <0>         0.0765
     24 H3         -0.5455    1.8639   -0.8728 H         1 <0>         0.0720
     25 H4         -0.5286    1.8543    0.9071 H         1 <0>         0.0690
     26 H5         -0.0061   -0.1413   -2.1315 H         1 <0>         0.1347
     27 H6          0.0261   -2.6023   -2.1493 H         1 <0>         0.1375
     28 H7          0.0245   -0.1642    2.1335 H         1 <0>         0.1318
     29 H8         -1.9788   -2.3227    2.9904 H         1 <0>         0.1400
     30 H9         -1.8077   -3.8526    2.0968 H         1 <0>         0.1514
     31 H10        -0.8057   -4.7999    4.0423 H         1 <0>         0.4351
     32 H11        -2.9616   -2.2272    4.8860 H         1 <0>         0.1103
     33 H12        -3.9917   -2.8590    3.5823 H         1 <0>         0.1319
     34 H13        -5.1172   -2.2808    5.9419 H         1 <0>         0.1629
     35 H14        -5.5611   -3.8360    5.1536 H         1 <0>         0.1551
     36 H15        -3.0406   -6.1324    5.7074 H         1 <0>         0.1764
     37 H16        -1.6941   -5.0916    6.2739 H         1 <0>         0.1602
     38 H17        -2.6932   -6.1528    3.3628 H         1 <0>         0.0946
     39 H18        -4.3269   -5.5242    3.6856 H         1 <0>         0.1130
     40 H19        -3.2920   -4.7320    2.4733 H         1 <0>         0.0927
     41 H20         0.1313   -1.1957    3.6717 H         1 <0>         0.3870
     42 H21        -0.8381   -4.4865   -1.8483 H         1 <0>         0.0616
     43 H22         0.9417   -4.4635   -1.8574 H         1 <0>         0.0633
     44 H23         0.0731   -5.8521   -1.1606 H         1 <0>         0.1071
     45 H24        -0.9640   -3.3837    4.8695 H         1 <0>         0.4329
@<TRIPOS>BOND
     1    1    2 1
     2    1   23 1
     3    1   24 1
     4    1   25 1
     5    2    7 ar
     6    2    3 ar
     7    3    4 ar
     8    3   26 1
     9    4    5 ar
    10    4   27 1
    11    5    6 ar
    12    5   21 1
    13    6    7 ar
    14    6    8 1
    15    7   28 1
    16    8    9 1
    17    8   10 1
    18    8   20 1
    19   10   11 1
    20   10   29 1
    21   10   30 1
    22   11   12 1
    23   11   31 1
    24   11   45 1
    25   12   18 1
    26   12   13 1
    27   12   19 1
    28   13   14 1
    29   13   32 1
    30   13   33 1
    31   14   15 1
    32   14   34 1
    33   14   35 1
    34   15   16 2
    35   15   17 2
    36   15   18 1
    37   18   36 1
    38   18   37 1
    39   19   38 1
    40   19   39 1
    41   19   40 1
    42   20   41 1
    43   21   22 1
    44   22   42 1
    45   22   43 1
    46   22   44 1
@<TRIPOS>MOLECULE
ZINC39461164
   58    61     0     0     0
SMALL
USER_CHARGES

@<TRIPOS>ATOM
      1 C1          0.0877    1.5458    0.0307 C.3       1 <0>        -0.0795
      2 C2          0.0917    0.0388    0.0184 C.2       1 <0>         0.0046
      3 C3         -1.0009   -0.7496    0.0153 C.2       1 <0>        -0.2140
      4 C4         -0.5471   -2.0838    0.0030 C.2       1 <0>        -0.1768
      5 C5          0.8116   -2.0353   -0.0008 C.2       1 <0>         0.0067
      6 O1          1.1849   -0.7412    0.0028 O.3       1 <0>        -0.1694
      7 C6          1.7209   -3.2002   -0.0131 C.ar      1 <0>         0.0008
      8 C7          1.2007   -4.4955   -0.0279 C.ar      1 <0>        -0.0999
      9 C8          2.0551   -5.5786   -0.0393 C.ar      1 <0>        -0.1101
     10 C9          3.4249   -5.3831   -0.0361 C.ar      1 <0>        -0.0877
     11 C10         3.9471   -4.1019   -0.0211 C.ar      1 <0>        -0.0897
     12 C11         3.1038   -3.0101   -0.0158 C.ar      1 <0>        -0.1036
     13 C12         4.3521   -6.5710   -0.0486 C.3       1 <0>         0.0969
     14 N1          4.6544   -6.9416   -1.4376 N.3       1 <0>        -0.5306
     15 C13         3.4511   -7.4238   -2.1274 C.3       1 <0>         0.0466
     16 C14         3.7694   -7.6616   -3.6053 C.3       1 <0>        -0.1383
     17 C15         4.8945   -8.6938   -3.7203 C.3       1 <0>         0.0341
     18 H1          4.5639   -9.6418   -3.2960 H         1 <0>         0.1420
     19 C16         6.1198   -8.1894   -2.9530 C.3       1 <0>         0.0924
     20 H2          6.4736   -7.2613   -3.4020 H         1 <0>         0.0898
     21 C17         5.7333   -7.9362   -1.4940 C.3       1 <0>         0.0238
     22 O2          7.1558   -9.1720   -3.0092 O.3       1 <0>        -0.5709
     23 N2          5.2435   -8.8841   -5.1345 N.4       1 <0>        -0.3784
     24 C18         4.1102   -9.4962   -5.8385 C.3       1 <0>        -0.0055
     25 C19         4.4968   -9.7710   -7.2933 C.3       1 <0>        -0.1425
     26 C20         4.8705   -8.4513   -7.9745 C.3       1 <0>         0.0967
     27 C21         6.0038   -7.7855   -7.1886 C.3       1 <0>        -0.1810
     28 C22         5.5613   -7.5843   -5.7377 C.3       1 <0>        -0.0118
     29 O3          5.3036   -8.7096   -9.3116 O.3       1 <0>        -0.5527
     30 H3          1.1144    1.9119    0.0255 H         1 <0>         0.0778
     31 H4         -0.4342    1.9150   -0.8521 H         1 <0>         0.0899
     32 H5         -0.4199    1.9004    0.9277 H         1 <0>         0.0905
     33 H6         -2.0297   -0.4213    0.0217 H         1 <0>         0.1536
     34 H7         -1.1601   -2.9729   -0.0018 H         1 <0>         0.1509
     35 H8          0.1317   -4.6494   -0.0300 H         1 <0>         0.1303
     36 H9          1.6540   -6.5812   -0.0503 H         1 <0>         0.1251
     37 H10         5.0172   -3.9563   -0.0180 H         1 <0>         0.1280
     38 H11         3.5127   -2.0105   -0.0090 H         1 <0>         0.1301
     39 H12         5.2769   -6.3155    0.4687 H         1 <0>         0.0930
     40 H13         3.8738   -7.4107    0.4555 H         1 <0>         0.0540
     41 H14         3.1211   -8.3575   -1.6722 H         1 <0>         0.0502
     42 H15         2.6601   -6.6787   -2.0417 H         1 <0>         0.1067
     43 H16         2.8802   -8.0343   -4.1137 H         1 <0>         0.1003
     44 H17         4.0863   -6.7252   -4.0646 H         1 <0>         0.1004
     45 H18         6.5999   -7.5633   -0.9482 H         1 <0>         0.1001
     46 H19         5.3926   -8.8676   -1.0417 H         1 <0>         0.0570
     47 H20         7.9640   -8.9185   -2.5428 H         1 <0>         0.4086
     48 H21         3.8434  -10.4337   -5.3506 H         1 <0>         0.1368
     49 H22         3.2573   -8.8180   -5.8116 H         1 <0>         0.1316
     50 H23         5.3496  -10.4493   -7.3214 H         1 <0>         0.0967
     51 H24         3.6535  -10.2237   -7.8147 H         1 <0>         0.1202
     52 H25         4.0028   -7.7918   -7.9922 H         1 <0>         0.0734
     53 H26         6.8878   -8.4226   -7.2145 H         1 <0>         0.0969
     54 H27         6.2376   -6.8191   -7.6353 H         1 <0>         0.1145
     55 H28         4.6774   -6.9469   -5.7129 H         1 <0>         0.1334
     56 H29         6.3658   -7.1103   -5.1754 H         1 <0>         0.1328
     57 H30         5.5565   -7.9162   -9.8032 H         1 <0>         0.3940
     58 H31         6.0467   -9.4909   -5.2030 H         1 <0>         0.4311
@<TRIPOS>BOND
     1    1    2 1
     2    1   30 1
     3    1   31 1
     4    1   32 1
     5    2    6 1
     6    2    3 2
     7    3    4 1
     8    3   33 1
     9    4    5 2
    10    4   34 1
    11    5    6 1
    12    5    7 1
    13    7   12 ar
    14    7    8 ar
    15    8    9 ar
    16    8   35 1
    17    9   10 ar
    18    9   36 1
    19   10   11 ar
    20   10   13 1
    21   11   12 ar
    22   11   37 1
    23   12   38 1
    24   13   14 1
    25   13   39 1
    26   13   40 1
    27   14   21 1
    28   14   15 1
    29   15   16 1
    30   15   41 1
    31   15   42 1
    32   16   17 1
    33   16   43 1
    34   16   44 1
    35   17   18 1
    36   17   19 1
    37   17   23 1
    38   19   20 1
    39   19   21 1
    40   19   22 1
    41   21   45 1
    42   21   46 1
    43   22   47 1
    44   23   28 1
    45   23   24 1
    46   23   58 1
    47   24   25 1
    48   24   48 1
    49   24   49 1
    50   25   26 1
    51   25   50 1
    52   25   51 1
    53   26   27 1
    54   26   29 1
    55   26   52 1
    56   27   28 1
    57   27   53 1
    58   27   54 1
    59   28   55 1
    60   28   56 1
    61   29   57 1
@<TRIPOS>MOLECULE
ZINC65494672
   48    51     0     0     0
SMALL
USER_CHARGES

@<TRIPOS>ATOM
      1 C1         -0.0184    1.5028    0.0103 C.3       1 <0>        -0.1233
      2 C2          0.0021   -0.0041    0.0020 C.ar      1 <0>        -0.1275
      3 C3          0.0058   -0.6894   -1.1940 C.ar      1 <0>        -0.0415
      4 C4          0.0245   -2.0771   -1.2153 C.ar      1 <0>        -0.1373
      5 C5          0.0391   -2.7902   -0.0499 C.ar      1 <0>        -0.0490
      6 C6          0.0357   -2.1161    1.1754 C.ar      1 <0>        -0.1539
      7 C7          0.0230   -0.7085    1.2010 C.ar      1 <0>         0.1969
      8 N1          0.0251   -0.0488    2.4116 N.am      1 <0>        -0.6192
      9 C8          0.0449   -0.7303    3.5704 C.2       1 <0>         0.5433
     10 C9          0.0643   -2.1412    3.5998 C.2       1 <0>        -0.2821
     11 C10         0.0507   -2.8487    2.4430 C.2       1 <0>         0.0668
     12 C11         0.0861   -2.8643    4.9218 C.3       1 <0>         0.0660
     13 N2          1.4718   -2.9747    5.3967 N.4       1 <0>        -0.3810
     14 C12         2.0030   -1.6329    5.6661 C.3       1 <0>        -0.0054
     15 C13         3.4772   -1.7375    6.0688 C.3       1 <0>        -0.1331
     16 C14         3.6010   -2.6212    7.3024 C.3       1 <0>        -0.0880
     17 C15         2.9566   -3.9803    7.0666 C.3       1 <0>        -0.1287
     18 C16         1.5041   -3.7820    6.6223 C.3       1 <0>        -0.0097
     19 C17         5.0756   -2.7812    7.7119 C.3       1 <0>        -0.1453
     20 C18         5.2881   -1.6992    8.7501 C.2       1 <0>         0.5159
     21 O1          6.3699   -1.3053    9.1315 O.2       1 <0>        -0.5133
     22 N3          4.1024   -1.2384    9.1874 N.am      1 <0>        -0.7338
     23 C19         2.9854   -1.9316    8.5309 C.3       1 <0>         0.1040
     24 O2          0.0465   -0.1141    4.6220 O.2       1 <0>        -0.5403
     25 H1          1.0042    1.8801    0.0026 H         1 <0>         0.0819
     26 H2         -0.5455    1.8639   -0.8728 H         1 <0>         0.0860
     27 H3         -0.5286    1.8543    0.9071 H         1 <0>         0.0646
     28 H4         -0.0064   -0.1408   -2.1242 H         1 <0>         0.1428
     29 H5          0.0271   -2.5978   -2.1614 H         1 <0>         0.1413
     30 H6          0.0529   -3.8698   -0.0749 H         1 <0>         0.1429
     31 H7          0.0650   -3.9285    2.4563 H         1 <0>         0.1576
     32 H8         -0.5043   -2.3082    5.6499 H         1 <0>         0.1436
     33 H9         -0.3358   -3.8616    4.7974 H         1 <0>         0.1414
     34 H10         1.9141   -1.0202    4.7689 H         1 <0>         0.1316
     35 H11         1.4367   -1.1740    6.4766 H         1 <0>         0.1354
     36 H12         4.0480   -2.1745    5.2495 H         1 <0>         0.0952
     37 H13         3.8645   -0.7435    6.2930 H         1 <0>         0.1129
     38 H14         3.5051   -4.5131    6.2898 H         1 <0>         0.0992
     39 H15         2.9789   -4.5587    7.9902 H         1 <0>         0.1200
     40 H16         0.9503   -3.2700    7.4092 H         1 <0>         0.1312
     41 H17         1.0474   -4.7529    6.4298 H         1 <0>         0.1368
     42 H18         5.2467   -3.7662    8.1461 H         1 <0>         0.1167
     43 H19         5.7295   -2.6217    6.8545 H         1 <0>         0.1114
     44 H20         3.9982   -0.5386    9.8509 H         1 <0>         0.4181
     45 H21         2.2258   -1.2142    8.2203 H         1 <0>         0.0825
     46 H22         2.5534   -2.6729    9.2033 H         1 <0>         0.0832
     47 H23         0.0124    0.9210    2.4275 H         1 <0>         0.4247
     48 H24         2.0346   -3.4199    4.6874 H         1 <0>         0.4184
@<TRIPOS>BOND
     1    1    2 1
     2    1   25 1
     3    1   26 1
     4    1   27 1
     5    2    7 ar
     6    2    3 ar
     7    3    4 ar
     8    3   28 1
     9    4    5 ar
    10    4   29 1
    11    5    6 ar
    12    5   30 1
    13    6   11 1
    14    6    7 ar
    15    7    8 1
    16    8    9 am
    17    8   47 1
    18    9   10 1
    19    9   24 2
    20   10   11 2
    21   10   12 1
    22   11   31 1
    23   12   13 1
    24   12   32 1
    25   12   33 1
    26   13   18 1
    27   13   14 1
    28   13   48 1
    29   14   15 1
    30   14   34 1
    31   14   35 1
    32   15   16 1
    33   15   36 1
    34   15   37 1
    35   16   23 1
    36   16   17 1
    37   16   19 1
    38   17   18 1
    39   17   38 1
    40   17   39 1
    41   18   40 1
    42   18   41 1
    43   19   20 1
    44   19   42 1
    45   19   43 1
    46   20   21 2
    47   20   22 am
    48   22   23 1
    49   22   44 1
    50   23   45 1
    51   23   46 1
@<TRIPOS>MOLECULE
ZINC36828397
   43    44     0     0     0
SMALL
USER_CHARGES

@<TRIPOS>ATOM
      1 C1         -0.0187    1.5258    0.0104 C.3       1 <0>        -0.1789
      2 C2          0.0021   -0.0041    0.0020 C.3       1 <0>         0.0728
      3 H1         -1.0205   -0.3814    0.0098 H         1 <0>         0.1513
      4 C3          0.7309   -0.5033    1.2229 C.ar      1 <0>        -0.1202
      5 C4          2.1144   -0.5123    1.2433 C.ar      1 <0>        -0.1207
      6 C5          2.7880   -0.9680    2.3576 C.ar      1 <0>        -0.0588
      7 C6          2.0704   -1.4203    3.4667 C.ar      1 <0>         0.0137
      8 C7          0.6744   -1.4079    3.4395 C.ar      1 <0>        -0.0594
      9 C8          0.0136   -0.9451    2.3205 C.ar      1 <0>        -0.0848
     10 C9          2.7630   -1.8951    4.6267 C.1       1 <0>         0.2262
     11 N1          3.3124   -2.2717    5.5468 N.1       1 <0>        -0.3726
     12 N2          0.6897   -0.4778   -1.2066 N.4       1 <0>        -0.5073
     13 C10        -0.0856   -0.0931   -2.3936 C.3       1 <0>         0.0211
     14 C11        -1.4322   -0.8202   -2.3807 C.3       1 <0>        -0.1555
     15 C12        -2.2518   -0.3903   -3.6015 C.3       1 <0>         0.1202
     16 N3         -1.4528   -0.6215   -4.8126 N.pl3     1 <0>        -1.0086
     17 C13        -0.1048   -0.0423   -4.8909 C.3       1 <0>         0.1205
     18 C14         0.6907   -0.4760   -3.6557 C.3       1 <0>        -0.1543
     19 S1         -2.0599   -1.5182   -6.0655 S.o2      1 <0>         2.6071
     20 O1         -0.9152   -2.0444   -6.7228 O.2       1 <0>        -0.9463
     21 O2         -3.0117   -2.3847   -5.4634 O.2       1 <0>        -0.9466
     22 C15        -2.8978   -0.3168   -7.1356 C.3       1 <0>        -0.6694
     23 H2          1.0039    1.9031    0.0027 H         1 <0>         0.0850
     24 H3         -0.5459    1.8868   -0.8726 H         1 <0>         0.0861
     25 H4         -0.5289    1.8773    0.9072 H         1 <0>         0.1099
     26 H5          2.6682   -0.1622    0.3847 H         1 <0>         0.1310
     27 H6          3.8679   -0.9752    2.3719 H         1 <0>         0.1467
     28 H7          0.1133   -1.7563    4.2940 H         1 <0>         0.1485
     29 H8         -1.0661   -0.9312    2.2996 H         1 <0>         0.1463
     30 H9          1.6080   -0.0627   -1.2556 H         1 <0>         0.4256
     31 H10        -0.2544    0.9837   -2.3838 H         1 <0>         0.1470
     32 H11        -1.2648   -1.8967   -2.4156 H         1 <0>         0.0974
     33 H12        -1.9746   -0.5652   -1.4702 H         1 <0>         0.1015
     34 H13        -3.1688   -0.9774   -3.6511 H         1 <0>         0.1160
     35 H14        -2.4973    0.6687   -3.5223 H         1 <0>         0.0843
     36 H15         0.3948   -0.3998   -5.7913 H         1 <0>         0.1162
     37 H16        -0.1753    1.0451   -4.9169 H         1 <0>         0.0845
     38 H17         1.6593    0.0239   -3.6527 H         1 <0>         0.1028
     39 H18         0.8381   -1.5558   -3.6786 H         1 <0>         0.0964
     40 H19        -2.1782    0.4249   -7.4822 H         1 <0>         0.1301
     41 H20        -3.3292   -0.8329   -7.9932 H         1 <0>         0.1351
     42 H21        -3.6894    0.1796   -6.5744 H         1 <0>         0.1300
     43 H22         0.7761   -1.4825   -1.1724 H         1 <0>         0.4303
@<TRIPOS>BOND
     1    1    2 1
     2    1   23 1
     3    1   24 1
     4    1   25 1
     5    2    3 1
     6    2    4 1
     7    2   12 1
     8    4    9 ar
     9    4    5 ar
    10    5    6 ar
    11    5   26 1
    12    6    7 ar
    13    6   27 1
    14    7    8 ar
    15    7   10 1
    16    8    9 ar
    17    8   28 1
    18    9   29 1
    19   10   11 3
    20   12   13 1
    21   12   30 1
    22   12   43 1
    23   13   18 1
    24   13   14 1
    25   13   31 1
    26   14   15 1
    27   14   32 1
    28   14   33 1
    29   15   16 1
    30   15   34 1
    31   15   35 1
    32   16   17 1
    33   16   19 1
    34   17   18 1
    35   17   36 1
    36   17   37 1
    37   18   38 1
    38   18   39 1
    39   19   20 2
    40   19   21 2
    41   19   22 1
    42   22   40 1
    43   22   41 1
    44   22   42 1
@<TRIPOS>MOLECULE
ZINC39960647
   45    48     0     0     0
SMALL
USER_CHARGES

@<TRIPOS>ATOM
      1 C1         -0.0184    1.5028    0.0103 C.3       1 <0>        -0.1143
      2 C2          0.0021   -0.0041    0.0020 C.cat     1 <0>         0.3027
      3 N1          0.0080   -0.7588   -1.0626 N.pl3     1 <0>        -0.4744
      4 C3          0.0275   -2.0475   -0.6911 C.2       1 <0>        -0.0114
      5 C4          0.0339   -2.0930    0.6548 C.2       1 <0>         0.0591
      6 N2          0.0232   -0.7970    1.0950 N.pl3     1 <0>        -0.4080
      7 C5          0.0304   -0.3529    2.4910 C.3       1 <0>         0.1020
      8 C6         -1.4059   -0.0982    2.9525 C.3       1 <0>        -0.1586
      9 H1         -1.8812    0.6079    2.2716 H         1 <0>         0.1200
     10 C7         -1.3835    0.4976    4.3583 C.3       1 <0>        -0.1048
     11 C8         -2.7797    0.5136    5.0067 C.3       1 <0>        -0.1206
     12 C9         -3.2779   -0.9049    5.0340 C.3       1 <0>         0.1575
     13 H2         -2.4934   -1.5402    5.4452 H         1 <0>         0.0640
     14 C10        -3.5338   -1.3405    3.5625 C.3       1 <0>        -0.1116
     15 H3         -4.1227   -0.5772    3.0539 H         1 <0>         0.1155
     16 C11        -2.1801   -1.4131    2.9327 C.2       1 <0>         0.3839
     17 O1         -1.7371   -2.4265    2.4479 O.2       1 <0>        -0.4352
     18 C12        -4.3546   -2.5544    3.7520 C.ar      1 <0>        -0.1681
     19 C13        -4.6093   -3.6389    2.9361 C.ar      1 <0>        -0.0294
     20 C14        -5.4411   -4.6334    3.4318 C.ar      1 <0>        -0.1921
     21 C15        -5.9991   -4.5478    4.6965 C.ar      1 <0>         0.1572
     22 C16        -5.7531   -3.4606    5.5291 C.ar      1 <0>        -0.1917
     23 C17        -4.9220   -2.4584    5.0420 C.ar      1 <0>         0.2050
     24 N3         -4.5351   -1.2644    5.6583 N.pl3     1 <0>        -0.6323
     25 C18        -5.2469   -0.5410    6.7149 C.3       1 <0>         0.1163
     26 O2         -6.8064   -5.5494    5.1345 O.3       1 <0>        -0.4995
     27 H4          1.0042    1.8801    0.0026 H         1 <0>         0.1223
     28 H5         -0.5455    1.8639   -0.8728 H         1 <0>         0.1174
     29 H6         -0.5286    1.8543    0.9071 H         1 <0>         0.1125
     30 H7          0.0365   -2.8993   -1.3550 H         1 <0>         0.2230
     31 H8          0.0489   -2.9814    1.2688 H         1 <0>         0.2253
     32 H9          0.4812   -1.1244    3.1154 H         1 <0>         0.1303
     33 H10         0.6082    0.5674    2.5767 H         1 <0>         0.1296
     34 H11        -0.7110   -0.0920    4.9815 H         1 <0>         0.0828
     35 H12        -1.0073    1.5191    4.3035 H         1 <0>         0.0971
     36 H13        -2.7122    0.9024    6.0227 H         1 <0>         0.0934
     37 H14        -3.4555    1.1325    4.4163 H         1 <0>         0.0844
     38 H15        -4.1776   -3.7105    1.9488 H         1 <0>         0.1302
     39 H16        -5.6585   -5.4940    2.8166 H         1 <0>         0.1295
     40 H17        -6.1908   -3.3976    6.5144 H         1 <0>         0.1356
     41 H18        -5.9312    0.1783    6.2652 H         1 <0>         0.0541
     42 H19        -5.8111   -1.2483    7.3228 H         1 <0>         0.0720
     43 H20        -4.5279   -0.0150    7.3429 H         1 <0>         0.0707
     44 H21        -6.3387   -6.2569    5.5990 H         1 <0>         0.3966
     45 H22        -0.0004   -0.4384   -1.9781 H         1 <0>         0.4618
@<TRIPOS>BOND
     1    1    2 1
     2    1   27 1
     3    1   28 1
     4    1   29 1
     5    2    6 1
     6    2    3 2
     7    3    4 1
     8    3   45 1
     9    4    5 2
    10    4   30 1
    11    5    6 1
    12    5   31 1
    13    6    7 1
    14    7    8 1
    15    7   32 1
    16    7   33 1
    17    8    9 1
    18    8   16 1
    19    8   10 1
    20   10   11 1
    21   10   34 1
    22   10   35 1
    23   11   12 1
    24   11   36 1
    25   11   37 1
    26   12   13 1
    27   12   24 1
    28   12   14 1
    29   14   15 1
    30   14   16 1
    31   14   18 1
    32   16   17 2
    33   18   23 ar
    34   18   19 ar
    35   19   20 ar
    36   19   38 1
    37   20   21 ar
    38   20   39 1
    39   21   22 ar
    40   21   26 1
    41   22   23 ar
    42   22   40 1
    43   23   24 1
    44   24   25 1
    45   25   41 1
    46   25   42 1
    47   25   43 1
    48   26   44 1
@<TRIPOS>MOLECULE
ZINC44937580
   41    43     0     0     0
SMALL
USER_CHARGES

@<TRIPOS>ATOM
      1 C1         -0.0167    1.3792    0.0096 C.ar      1 <0>        -0.1318
      2 C2          1.1668    2.0884    0.0021 C.ar      1 <0>        -0.0109
      3 C3          2.3851    1.4068   -0.0131 C.ar      1 <0>        -0.0306
      4 C4          2.3967    0.0103   -0.0207 C.ar      1 <0>         0.0274
      5 C5          1.2061   -0.6860   -0.0130 C.ar      1 <0>        -0.6866
      6 C6          0.0021   -0.0041    0.0020 C.ar      1 <0>        -0.0049
      7 S1          1.2183   -2.4480   -0.0226 S.o2      1 <0>         2.6909
      8 O1         -0.0294   -2.8598   -0.5637 O.2       1 <0>        -0.9349
      9 O2          2.4611   -2.8425   -0.5874 O.2       1 <0>        -0.9313
     10 N1          1.2368   -2.9460    1.5567 N.pl3     1 <0>        -1.1045
     11 C7          0.0931   -2.6630    2.4274 C.3       1 <0>         0.1381
     12 H1         -0.4641   -1.7985    2.0665 H         1 <0>         0.1227
     13 C8         -0.8306   -3.9061    2.5522 C.3       1 <0>        -0.1647
     14 C9         -1.2678   -3.9321    4.0373 C.3       1 <0>        -0.0075
     15 N2         -0.7002   -2.7268    4.6438 N.4       1 <0>        -0.3894
     16 C10         0.5482   -2.4552    3.8822 C.3       1 <0>         0.0235
     17 H2          1.3307   -3.1652    4.1498 H         1 <0>         0.1526
     18 C11         0.9697   -1.0253    4.1918 C.3       1 <0>        -0.1423
     19 C12         1.2946   -0.9549    5.6924 C.3       1 <0>        -0.1391
     20 C13         0.1039   -1.4328    6.5228 C.3       1 <0>        -0.1487
     21 C14        -0.3632   -2.8221    6.0565 C.3       1 <0>        -0.0016
     22 C15         3.6173    2.1363   -0.0214 C.1       1 <0>         0.2334
     23 N3          4.5948    2.7150   -0.0280 N.1       1 <0>        -0.3806
     24 H3         -0.9598    1.9051    0.0260 H         1 <0>         0.1500
     25 H4          1.1507    3.1682    0.0077 H         1 <0>         0.1479
     26 H5          3.3356   -0.5231   -0.0328 H         1 <0>         0.1534
     27 H6         -0.9272   -0.5543    0.0079 H         1 <0>         0.1488
     28 H7          2.0048   -3.4251    1.9051 H         1 <0>         0.4292
     29 H8         -1.6997   -3.7991    1.9032 H         1 <0>         0.1202
     30 H9         -0.2804   -4.8135    2.3033 H         1 <0>         0.1174
     31 H10        -2.3553   -3.9125    4.1092 H         1 <0>         0.1388
     32 H11        -0.8741   -4.8215    4.5294 H         1 <0>         0.1340
     33 H12         1.8534   -0.7653    3.6090 H         1 <0>         0.1165
     34 H13         0.1553   -0.3400    3.9567 H         1 <0>         0.0941
     35 H14         2.1569   -1.5872    5.9035 H         1 <0>         0.0836
     36 H15         1.5302    0.0748    5.9613 H         1 <0>         0.0971
     37 H16         0.3961   -1.4860    7.5716 H         1 <0>         0.1140
     38 H17        -0.7166   -0.7234    6.4152 H         1 <0>         0.0889
     39 H18        -1.2415   -3.1267    6.6256 H         1 <0>         0.1333
     40 H19         0.4380   -3.5477    6.1965 H         1 <0>         0.1299
     41 H20        -1.3346   -1.9547    4.5042 H         1 <0>         0.4233
@<TRIPOS>BOND
     1    1    6 ar
     2    1    2 ar
     3    1   24 1
     4    2    3 ar
     5    2   25 1
     6    3    4 ar
     7    3   22 1
     8    4    5 ar
     9    4   26 1
    10    5    6 ar
    11    5    7 1
    12    6   27 1
    13    7    8 2
    14    7    9 2
    15    7   10 1
    16   10   11 1
    17   10   28 1
    18   11   12 1
    19   11   16 1
    20   11   13 1
    21   13   14 1
    22   13   29 1
    23   13   30 1
    24   14   15 1
    25   14   31 1
    26   14   32 1
    27   15   21 1
    28   15   16 1
    29   15   41 1
    30   16   17 1
    31   16   18 1
    32   18   19 1
    33   18   33 1
    34   18   34 1
    35   19   20 1
    36   19   35 1
    37   19   36 1
    38   20   21 1
    39   20   37 1
    40   20   38 1
    41   21   39 1
    42   21   40 1
    43   22   23 3
@<TRIPOS>MOLECULE
ZINC61918113
   52    54     0     0     0
SMALL
USER_CHARGES

@<TRIPOS>ATOM
      1 C1         -0.0564    1.7873    0.7373 C.3       1 <0>        -0.1557
      2 C2         -0.0487    0.2694    0.5456 C.3       1 <0>        -0.1504
      3 C3          0.7290   -0.3851    1.6892 C.3       1 <0>        -0.0171
      4 N1          0.7364   -1.8425    1.5052 N.4       1 <0>        -0.5052
      5 C4          1.4831   -2.4709    2.6032 C.3       1 <0>         0.0314
      6 H1          1.0606   -2.1553    3.5571 H         1 <0>         0.1465
      7 C5          2.9510   -2.0458    2.5303 C.3       1 <0>        -0.1358
      8 C6          3.5432   -2.4853    1.1895 C.3       1 <0>        -0.1550
      9 C7          3.4408   -4.0061    1.0618 C.3       1 <0>         0.2558
     10 C8          1.9749   -4.4357    1.1401 C.3       1 <0>        -0.1304
     11 C9          1.3854   -3.9928    2.4807 C.3       1 <0>         0.0677
     12 H2          1.9414   -4.4592    3.2940 H         1 <0>         0.1029
     13 N2         -0.0240   -4.4004    2.5542 N.3       1 <0>        -0.5424
     14 C10        -0.1538   -5.8306    2.4466 C.3       1 <0>         0.0466
     15 C11        -1.4028   -6.2516    1.6381 C.3       1 <0>        -0.1413
     16 C12        -2.6138   -5.3570    1.9881 C.3       1 <0>         0.0655
     17 O1         -2.7115   -5.0703    3.3540 O.3       1 <0>        -0.3641
     18 C13        -2.0949   -3.8119    3.7076 C.3       1 <0>         0.0606
     19 C14        -0.6424   -3.9438    3.8166 C.3       1 <0>         0.0011
     20 O2          3.9938   -4.4183   -0.1987 O.3       1 <0>        -0.3649
     21 C15         5.3621   -4.7860    0.1003 C.3       1 <0>         0.0153
     22 C16         5.2170   -5.4235    1.5048 C.3       1 <0>         0.0198
     23 O3          4.1821   -4.6287    2.1187 O.3       1 <0>        -0.3729
     24 H3          0.9684    2.1586    0.7389 H         1 <0>         0.0670
     25 H4         -0.6105    2.2536   -0.0774 H         1 <0>         0.0780
     26 H5         -0.5328    2.0312    1.6869 H         1 <0>         0.0674
     27 H6         -1.0735   -0.1018    0.5440 H         1 <0>         0.0868
     28 H7          0.4276    0.0255   -0.4040 H         1 <0>         0.0859
     29 H8          1.7538   -0.0138    1.6908 H         1 <0>         0.1325
     30 H9          0.2527   -0.1412    2.6388 H         1 <0>         0.1321
     31 H10        -0.2122   -2.1861    1.5037 H         1 <0>         0.4329
     32 H11         3.0203   -0.9617    2.6202 H         1 <0>         0.0996
     33 H12         3.5057   -2.5140    3.3434 H         1 <0>         0.1215
     34 H13         2.9908   -2.0143    0.3764 H         1 <0>         0.0771
     35 H14         4.5900   -2.1860    1.1390 H         1 <0>         0.1020
     36 H15         1.4165   -3.9724    0.3267 H         1 <0>         0.0843
     37 H16         1.9090   -5.5203    1.0547 H         1 <0>         0.1064
     38 H17         0.7344   -6.2296    1.9567 H         1 <0>         0.0777
     39 H18        -0.2226   -6.2549    3.4482 H         1 <0>         0.0585
     40 H19        -1.1872   -6.1622    0.5733 H         1 <0>         0.0751
     41 H20        -1.6454   -7.2891    1.8679 H         1 <0>         0.0780
     42 H21        -2.5268   -4.4195    1.4389 H         1 <0>         0.0502
     43 H22        -3.5258   -5.8625    1.6705 H         1 <0>         0.0831
     44 H23        -2.3297   -3.0720    2.9424 H         1 <0>         0.0554
     45 H24        -2.4954   -3.4745    4.6636 H         1 <0>         0.1036
     46 H25        -0.4108   -4.6617    4.6033 H         1 <0>         0.0690
     47 H26        -0.2191   -2.9766    4.0876 H         1 <0>         0.0793
     48 H27         5.7375   -5.5120   -0.6209 H         1 <0>         0.1194
     49 H28         6.0038   -3.9057    0.1357 H         1 <0>         0.0830
     50 H29         4.9062   -6.4652    1.4247 H         1 <0>         0.0841
     51 H30         6.1491   -5.3404    2.0637 H         1 <0>         0.1100
     52 H31         1.1774   -2.0682    0.6261 H         1 <0>         0.4220
@<TRIPOS>BOND
     1    1    2 1
     2    1   24 1
     3    1   25 1
     4    1   26 1
     5    2    3 1
     6    2   27 1
     7    2   28 1
     8    3    4 1
     9    3   29 1
    10    3   30 1
    11    4    5 1
    12    4   31 1
    13    4   52 1
    14    5    6 1
    15    5   11 1
    16    5    7 1
    17    7    8 1
    18    7   32 1
    19    7   33 1
    20    8    9 1
    21    8   34 1
    22    8   35 1
    23    9   23 1
    24    9   10 1
    25    9   20 1
    26   10   11 1
    27   10   36 1
    28   10   37 1
    29   11   12 1
    30   11   13 1
    31   13   19 1
    32   13   14 1
    33   14   15 1
    34   14   38 1
    35   14   39 1
    36   15   16 1
    37   15   40 1
    38   15   41 1
    39   16   17 1
    40   16   42 1
    41   16   43 1
    42   17   18 1
    43   18   19 1
    44   18   44 1
    45   18   45 1
    46   19   46 1
    47   19   47 1
    48   20   21 1
    49   21   22 1
    50   21   48 1
    51   21   49 1
    52   22   23 1
    53   22   50 1
    54   22   51 1
@<TRIPOS>MOLECULE
ZINC54153037
   45    48     0     0     0
SMALL
USER_CHARGES

@<TRIPOS>ATOM
      1 C1         -0.0167    1.3782    0.0096 C.ar      1 <0>        -0.0491
      2 C2          1.1644    2.0915    0.0022 C.ar      1 <0>        -0.1387
      3 C3          2.3864    1.4243   -0.0147 C.ar      1 <0>         0.1518
      4 C4          2.3923    0.0352   -0.0302 C.ar      1 <0>        -0.1733
      5 C5          1.2125   -0.6747   -0.0175 C.ar      1 <0>        -0.0414
      6 C6          0.0021   -0.0041    0.0020 C.ar      1 <0>        -0.2054
      7 C7         -1.2910   -0.7779    0.0154 C.3       1 <0>         0.0543
      8 N1         -1.7299   -1.0220   -1.3651 N.4       1 <0>        -0.5109
      9 C8         -2.9904   -1.7763   -1.3521 C.3       1 <0>         0.1003
     10 C9         -3.4406   -2.0267   -2.7683 C.2       1 <0>         0.0764
     11 N2         -4.2076   -1.2506   -3.4876 N.2       1 <0>        -0.2371
     12 N3         -4.3806   -1.7706   -4.6527 N.2       1 <0>        -0.2752
     13 C10        -3.7299   -2.8964   -4.7284 C.2       1 <0>         0.2296
     14 N4         -3.1222   -3.0930   -3.5350 N.pl3     1 <0>        -0.4578
     15 C11        -2.3012   -4.2428   -3.1547 C.3       1 <0>         0.0944
     16 C12        -1.6398   -4.8307   -4.4043 C.3       1 <0>        -0.1434
     17 C13        -2.5562   -5.8843   -5.0249 C.3       1 <0>        -0.1300
     18 C14        -3.8794   -5.2567   -5.4525 C.3       1 <0>        -0.1268
     19 C15        -3.6441   -3.8209   -5.9151 C.3       1 <0>        -0.0497
     20 C16         3.8436   -0.4025   -0.0713 C.3       1 <0>        -0.1153
     21 C17         4.5616    0.9074   -0.4735 C.3       1 <0>         0.0474
     22 O1          3.6534    1.9225   -0.0132 O.3       1 <0>        -0.2931
     23 H1         -0.9607    1.9025    0.0260 H         1 <0>         0.1432
     24 H2          1.1409    3.1712    0.0091 H         1 <0>         0.1438
     25 H3          1.2317   -1.7546   -0.0234 H         1 <0>         0.1331
     26 H4         -1.1389   -1.7309    0.5221 H         1 <0>         0.1397
     27 H5         -2.0527   -0.2035    0.5426 H         1 <0>         0.1452
     28 H6         -1.8707   -0.1398   -1.8342 H         1 <0>         0.4355
     29 H7         -2.8383   -2.7293   -0.8453 H         1 <0>         0.1479
     30 H8         -3.7521   -1.2019   -0.8249 H         1 <0>         0.1676
     31 H9         -1.5316   -3.9235   -2.4520 H         1 <0>         0.0907
     32 H10        -2.9303   -4.9996   -2.6861 H         1 <0>         0.1044
     33 H11        -1.4598   -4.0353   -5.1275 H         1 <0>         0.0838
     34 H12        -0.6911   -5.2917   -4.1296 H         1 <0>         0.0975
     35 H13        -2.0661   -6.3190   -5.8960 H         1 <0>         0.0826
     36 H14        -2.7499   -6.6685   -4.2931 H         1 <0>         0.0759
     37 H15        -4.3080   -5.8355   -6.2706 H         1 <0>         0.0920
     38 H16        -4.5697   -5.2550   -4.6089 H         1 <0>         0.0658
     39 H17        -4.3986   -3.5413   -6.6503 H         1 <0>         0.1131
     40 H18        -2.6528   -3.7484   -6.3626 H         1 <0>         0.1034
     41 H19         4.1756   -0.7434    0.9094 H         1 <0>         0.1006
     42 H20         3.9958   -1.1768   -0.8233 H         1 <0>         0.0994
     43 H21         5.5234    0.9916    0.0324 H         1 <0>         0.1186
     44 H22         4.6868    0.9628   -1.5549 H         1 <0>         0.0869
     45 H23        -1.0248   -1.5537   -1.8532 H         1 <0>         0.4226
@<TRIPOS>BOND
     1    1    6 ar
     2    1    2 ar
     3    1   23 1
     4    2    3 ar
     5    2   24 1
     6    3   22 1
     7    3    4 ar
     8    4    5 ar
     9    4   20 1
    10    5    6 ar
    11    5   25 1
    12    6    7 1
    13    7    8 1
    14    7   26 1
    15    7   27 1
    16    8    9 1
    17    8   28 1
    18    8   45 1
    19    9   10 1
    20    9   29 1
    21    9   30 1
    22   10   14 1
    23   10   11 2
    24   11   12 1
    25   12   13 2
    26   13   19 1
    27   13   14 1
    28   14   15 1
    29   15   16 1
    30   15   31 1
    31   15   32 1
    32   16   17 1
    33   16   33 1
    34   16   34 1
    35   17   18 1
    36   17   35 1
    37   17   36 1
    38   18   19 1
    39   18   37 1
    40   18   38 1
    41   19   39 1
    42   19   40 1
    43   20   21 1
    44   20   41 1
    45   20   42 1
    46   21   22 1
    47   21   43 1
    48   21   44 1
@<TRIPOS>MOLECULE
ZINC30008854
   46    47     0     0     0
SMALL
USER_CHARGES
4-methyl-N-(1-methylsulfonyl-4-piperidyl)piperidine-1-sulfonamide
@<TRIPOS>ATOM
      1 C1         -2.1993    3.8483    2.1797 C.3       1 <0>        -0.1505
      2 C2         -1.3513    3.5627    0.9386 C.3       1 <0>        -0.0900
      3 C3          0.0833    4.0372    1.1811 C.3       1 <0>        -0.1296
      4 C4          0.9373    3.7184   -0.0501 C.3       1 <0>         0.1195
      5 N1          0.2986    4.3085   -1.2344 N.pl3     1 <0>        -1.0084
      6 C5         -1.1089    3.9898   -1.5106 C.3       1 <0>         0.1136
      7 C6         -1.9399    4.3056   -0.2630 C.3       1 <0>        -0.1285
      8 S1          1.1490    5.3134   -2.2391 S.o2      1 <0>         2.7808
      9 O1          0.1894    6.0309   -3.0030 O.2       1 <0>        -0.9738
     10 O2          2.1225    5.9638   -1.4339 O.2       1 <0>        -0.9772
     11 N2          1.9793    4.3537   -3.3031 N.pl3     1 <0>        -1.1312
     12 C7          1.2491    3.5226   -4.2634 C.3       1 <0>         0.1548
     13 C8          1.1075    2.1043   -3.7061 C.3       1 <0>        -0.1604
     14 C9          0.3137    1.2474   -4.6972 C.3       1 <0>         0.1200
     15 N3          0.9669    1.3169   -6.0114 N.pl3     1 <0>        -0.9999
     16 C10         1.2332    2.6370   -6.5990 C.3       1 <0>         0.1183
     17 C11         2.0167    3.4783   -5.5866 C.3       1 <0>        -0.1361
     18 S2          1.3952   -0.0663   -6.8149 S.o2      1 <0>         2.6100
     19 O3          0.5004   -1.0585   -6.3312 O.2       1 <0>        -0.9536
     20 O4          1.3988    0.2985   -8.1883 O.2       1 <0>        -0.9527
     21 C12         3.0845   -0.4241   -6.2592 C.3       1 <0>        -0.6768
     22 H1         -1.7764    3.3144    3.0435 H         1 <0>         0.0560
     23 H2         -3.2302    3.5062    2.0060 H         1 <0>         0.0563
     24 H3         -2.2009    4.9296    2.3818 H         1 <0>         0.0552
     25 H4         -1.3499    2.4816    0.7358 H         1 <0>         0.0723
     26 H5          0.0853    5.1226    1.3594 H         1 <0>         0.0692
     27 H6          0.4968    3.5205    2.0598 H         1 <0>         0.0759
     28 H7          1.9434    4.1431    0.0816 H         1 <0>         0.0894
     29 H8          1.0128    2.6277   -0.1716 H         1 <0>         0.0690
     30 H9         -1.4627    4.5959   -2.3576 H         1 <0>         0.0944
     31 H10        -1.2011    2.9224   -1.7598 H         1 <0>         0.0700
     32 H11        -2.9791    3.9816   -0.4212 H         1 <0>         0.0769
     33 H12        -1.9186    5.3885   -0.0709 H         1 <0>         0.0685
     34 H13         3.0636    4.2213   -3.1740 H         1 <0>         0.4370
     35 H14         0.2602    3.9831   -4.4051 H         1 <0>         0.0936
     36 H15         2.1060    1.6669   -3.5587 H         1 <0>         0.0767
     37 H16         0.5770    2.1400   -2.7431 H         1 <0>         0.0841
     38 H17         0.2925    0.2052   -4.3459 H         1 <0>         0.0976
     39 H18        -0.7148    1.6303   -4.7712 H         1 <0>         0.0797
     40 H19         1.8231    2.5163   -7.5196 H         1 <0>         0.0991
     41 H20         0.2799    3.1317   -6.8366 H         1 <0>         0.0812
     42 H21         2.1391    4.5006   -5.9739 H         1 <0>         0.0886
     43 H22         3.0066    3.0279   -5.4214 H         1 <0>         0.0751
     44 H23         3.4467   -1.3384   -6.7521 H         1 <0>         0.1298
     45 H24         3.0888   -0.5690   -5.1688 H         1 <0>         0.1275
     46 H25         3.7423    0.4181   -6.5198 H         1 <0>         0.1283
@<TRIPOS>BOND
     1    1    2 1
     2    1   22 1
     3    1   23 1
     4    1   24 1
     5    2    7 1
     6    2    3 1
     7    2   25 1
     8    3    4 1
     9    3   26 1
    10    3   27 1
    11    4    5 1
    12    4   28 1
    13    4   29 1
    14    5    6 1
    15    5    8 1
    16    6    7 1
    17    6   30 1
    18    6   31 1
    19    7   32 1
    20    7   33 1
    21    8    9 2
    22    8   10 2
    23    8   11 1
    24   11   12 1
    25   11   34 1
    26   12   17 1
    27   12   13 1
    28   12   35 1
    29   13   14 1
    30   13   36 1
    31   13   37 1
    32   14   15 1
    33   14   38 1
    34   14   39 1
    35   15   16 1
    36   15   18 1
    37   16   17 1
    38   16   40 1
    39   16   41 1
    40   17   42 1
    41   17   43 1
    42   18   19 2
    43   18   20 2
    44   18   21 1
    45   21   44 1
    46   21   45 1
    47   21   46 1
@<TRIPOS>MOLECULE
ZINC41250638
   44    45     0     0     0
SMALL
USER_CHARGES

@<TRIPOS>ATOM
      1 C1         -1.6551    1.2656   -1.6078 C.3       1 <0>        -0.1530
      2 C2         -1.6266   -0.2600   -1.7211 C.3       1 <0>         0.0796
      3 O1         -0.5520   -0.6541   -2.5766 O.3       1 <0>        -0.3636
      4 C3         -0.3876   -1.9744   -2.7828 C.2       1 <0>         0.6525
      5 O2         -1.1361   -2.7702   -2.2510 O.2       1 <0>        -0.5667
      6 N1          0.6072   -2.4133   -3.5791 N.am      1 <0>        -0.5964
      7 C4          1.5238   -1.4627   -4.2240 C.3       1 <0>         0.0987
      8 C5          2.9628   -1.8378   -3.8486 C.3       1 <0>         0.0968
      9 N2          3.1507   -3.2757   -4.0872 N.am      1 <0>        -0.6087
     10 C6          2.2340   -4.2264   -3.4424 C.3       1 <0>         0.0854
     11 C7          0.7985   -3.8515   -3.8133 C.3       1 <0>         0.1117
     12 C8          4.1455   -3.7147   -4.8836 C.2       1 <0>         0.5184
     13 O3          4.8396   -2.9196   -5.4810 O.2       1 <0>        -0.5286
     14 C9          4.3953   -5.1934   -5.0316 C.3       1 <0>         0.1263
     15 H1          3.4431   -5.7150   -5.1280 H         1 <0>         0.1166
     16 C10         5.1378   -5.7112   -3.7980 C.3       1 <0>        -0.1612
     17 N3          5.2073   -5.4342   -6.2270 N.am      1 <0>        -0.7120
     18 C11         5.1490   -6.6268   -6.8522 C.2       1 <0>         0.6127
     19 O4          4.4219   -7.5037   -6.4237 O.2       1 <0>        -0.5245
     20 C12         5.9614   -6.8678   -8.0483 C.2       1 <0>        -0.2634
     21 C13         6.0434   -8.0072   -8.8341 C.2       1 <0>        -0.0629
     22 C14         6.9030   -7.9339   -9.9039 C.2       1 <0>        -0.1863
     23 C15         7.5948   -6.7872  -10.1162 C.2       1 <0>        -0.2196
     24 S1          7.0956   -5.7696   -8.8763 S.3       1 <0>         0.2140
     25 H2         -0.7112    1.6166   -1.1907 H         1 <0>         0.0670
     26 H3         -1.7995    1.7007   -2.5967 H         1 <0>         0.0670
     27 H4         -2.4748    1.5662   -0.9553 H         1 <0>         0.0833
     28 H5         -1.4822   -0.6951   -0.7322 H         1 <0>         0.0689
     29 H6         -2.5705   -0.6110   -2.1382 H         1 <0>         0.0689
     30 H7          1.4027   -1.5143   -5.3060 H         1 <0>         0.0790
     31 H8          1.3068   -0.4524   -3.8769 H         1 <0>         0.1080
     32 H9          3.6611   -1.2706   -4.4640 H         1 <0>         0.1106
     33 H10         3.1358   -1.6161   -2.7955 H         1 <0>         0.0786
     34 H11         2.4511   -5.2367   -3.7894 H         1 <0>         0.1067
     35 H12         2.3551   -4.1748   -2.3604 H         1 <0>         0.0850
     36 H13         0.1026   -4.4186   -3.1951 H         1 <0>         0.1141
     37 H14         0.6246   -4.0772   -4.8654 H         1 <0>         0.0811
     38 H15         4.5096   -5.5848   -2.9163 H         1 <0>         0.0754
     39 H16         5.3695   -6.7680   -3.9305 H         1 <0>         0.0801
     40 H17         6.0630   -5.1498   -3.6686 H         1 <0>         0.0679
     41 H18         5.7868   -4.7354   -6.5686 H         1 <0>         0.4107
     42 H19         5.4686   -8.8958   -8.6190 H         1 <0>         0.1510
     43 H20         7.0260   -8.7781  -10.5662 H         1 <0>         0.1404
     44 H21         8.3014   -6.5749  -10.9049 H         1 <0>         0.1906
@<TRIPOS>BOND
     1    1    2 1
     2    1   25 1
     3    1   26 1
     4    1   27 1
     5    2    3 1
     6    2   28 1
     7    2   29 1
     8    3    4 1
     9    4    5 2
    10    4    6 am
    11    6   11 1
    12    6    7 1
    13    7    8 1
    14    7   30 1
    15    7   31 1
    16    8    9 1
    17    8   32 1
    18    8   33 1
    19    9   10 1
    20    9   12 am
    21   10   11 1
    22   10   34 1
    23   10   35 1
    24   11   36 1
    25   11   37 1
    26   12   13 2
    27   12   14 1
    28   14   15 1
    29   14   16 1
    30   14   17 1
    31   16   38 1
    32   16   39 1
    33   16   40 1
    34   17   18 am
    35   17   41 1
    36   18   19 2
    37   18   20 1
    38   20   24 1
    39   20   21 2
    40   21   22 1
    41   21   42 1
    42   22   23 2
    43   22   43 1
    44   23   24 1
    45   23   44 1
@<TRIPOS>MOLECULE
ZINC45849778
   49    51     0     0     0
SMALL
USER_CHARGES

@<TRIPOS>ATOM
      1 C1         -0.0187    1.5258    0.0104 C.3       1 <0>        -0.1719
      2 C2          0.0021   -0.0041    0.0020 C.3       1 <0>         0.1274
      3 N1          0.6878   -0.4765   -1.2033 N.am      1 <0>        -0.5370
      4 C3          0.0868   -0.7444   -2.4310 C.ar      1 <0>         0.0959
      5 C4         -1.2200   -0.6663   -2.8878 C.ar      1 <0>        -0.1048
      6 C5         -1.5134   -1.0079   -4.1934 C.ar      1 <0>        -0.1086
      7 C6         -0.5084   -1.4285   -5.0476 C.ar      1 <0>        -0.1095
      8 C7          0.7961   -1.5099   -4.6015 C.ar      1 <0>        -0.1032
      9 C8          1.1005   -1.1681   -3.2926 C.ar      1 <0>         0.0961
     10 N2          2.2860   -1.1445   -2.5618 N.am      1 <0>        -0.5250
     11 C9          2.0072   -0.7202   -1.3148 C.2       1 <0>         0.6884
     12 O1          2.8234   -0.5814   -0.4229 O.2       1 <0>        -0.5510
     13 C10         3.6114   -1.5126   -3.0660 C.3       1 <0>         0.1161
     14 C11         4.2866   -0.2940   -3.6404 C.2       1 <0>         0.4998
     15 O2          3.7168    0.7766   -3.6297 O.2       1 <0>        -0.5207
     16 N3          5.5236   -0.3938   -4.1659 N.am      1 <0>        -0.7167
     17 C12         6.1801    0.7909   -4.7243 C.3       1 <0>         0.1025
     18 C13         7.5434    0.4123   -5.2429 C.2       1 <0>         0.5128
     19 O3          7.9288   -0.7343   -5.1547 O.2       1 <0>        -0.5365
     20 N4          8.3345    1.3478   -5.8047 N.am      1 <0>        -0.6066
     21 C14         7.8840    2.7421   -5.9131 C.3       1 <0>         0.1008
     22 C15         8.9432    3.6528   -5.2842 C.3       1 <0>        -0.1374
     23 C16        10.2995    3.3779   -5.9376 C.3       1 <0>        -0.1221
     24 C17        10.7029    1.9230   -5.6869 C.3       1 <0>        -0.1364
     25 C18         9.6661    0.9939   -6.3148 C.3       1 <0>         0.1101
     26 H1          1.0039    1.9031    0.0027 H         1 <0>         0.0629
     27 H2         -0.5459    1.8868   -0.8726 H         1 <0>         0.0613
     28 H3         -0.5289    1.8773    0.9072 H         1 <0>         0.0766
     29 H4          0.5293   -0.3651    0.8851 H         1 <0>         0.0943
     30 H5         -1.0205   -0.3814    0.0098 H         1 <0>         0.0908
     31 H6         -2.0068   -0.3393   -2.2241 H         1 <0>         0.1301
     32 H7         -2.5313   -0.9471   -4.5494 H         1 <0>         0.1337
     33 H8         -0.7456   -1.6943   -6.0672 H         1 <0>         0.1334
     34 H9          1.5773   -1.8391   -5.2706 H         1 <0>         0.1270
     35 H10         4.2133   -1.9104   -2.2489 H         1 <0>         0.1278
     36 H11         3.5071   -2.2703   -3.8426 H         1 <0>         0.1241
     37 H12         5.9793   -1.2500   -4.1745 H         1 <0>         0.4140
     38 H13         5.5781    1.1886   -5.5414 H         1 <0>         0.1009
     39 H14         6.2843    1.5485   -3.9476 H         1 <0>         0.1003
     40 H15         7.7542    3.0035   -6.9633 H         1 <0>         0.0770
     41 H16         6.9382    2.8626   -5.3848 H         1 <0>         0.0876
     42 H17         8.6674    4.6953   -5.4432 H         1 <0>         0.0801
     43 H18         9.0071    3.4519   -4.2148 H         1 <0>         0.0689
     44 H19        10.2282    3.5551   -7.0108 H         1 <0>         0.0664
     45 H20        11.0502    4.0419   -5.5092 H         1 <0>         0.0687
     46 H21        11.6796    1.7344   -6.1324 H         1 <0>         0.0788
     47 H22        10.7503    1.7385   -4.6137 H         1 <0>         0.0672
     48 H23         9.8958   -0.0385   -6.0515 H         1 <0>         0.0947
     49 H24         9.6849    1.1097   -7.3985 H         1 <0>         0.0709
@<TRIPOS>BOND
     1    1    2 1
     2    1   26 1
     3    1   27 1
     4    1   28 1
     5    2    3 1
     6    2   29 1
     7    2   30 1
     8    3   11 am
     9    3    4 1
    10    4    9 ar
    11    4    5 ar
    12    5    6 ar
    13    5   31 1
    14    6    7 ar
    15    6   32 1
    16    7    8 ar
    17    7   33 1
    18    8    9 ar
    19    8   34 1
    20    9   10 1
    21   10   11 am
    22   10   13 1
    23   11   12 2
    24   13   14 1
    25   13   35 1
    26   13   36 1
    27   14   15 2
    28   14   16 am
    29   16   17 1
    30   16   37 1
    31   17   18 1
    32   17   38 1
    33   17   39 1
    34   18   19 2
    35   18   20 am
    36   20   25 1
    37   20   21 1
    38   21   22 1
    39   21   40 1
    40   21   41 1
    41   22   23 1
    42   22   42 1
    43   22   43 1
    44   23   24 1
    45   23   44 1
    46   23   45 1
    47   24   25 1
    48   24   46 1
    49   24   47 1
    50   25   48 1
    51   25   49 1
@<TRIPOS>MOLECULE
ZINC64411299
   46    49     0     0     0
SMALL
USER_CHARGES

@<TRIPOS>ATOM
      1 C1         -0.0184    1.5028    0.0103 C.3       1 <0>        -0.1157
      2 C2          0.0021   -0.0041    0.0020 C.ar      1 <0>        -0.0885
      3 C3          0.0057   -0.6888   -1.1991 C.ar      1 <0>        -0.1146
      4 C4          0.0245   -2.0707   -1.2067 C.ar      1 <0>        -0.1180
      5 C5          0.0400   -2.7685   -0.0132 C.ar      1 <0>        -0.1083
      6 C6          0.0373   -2.0840    1.1875 C.ar      1 <0>        -0.1110
      7 C7          0.0229   -0.7015    1.1951 C.ar      1 <0>        -0.0972
      8 C8          0.0538   -2.8445    2.4885 C.3       1 <0>         0.1674
      9 N1          1.4402   -3.0731    2.9030 N.am      1 <0>        -0.6111
     10 C9          2.2362   -4.2454    2.5209 C.3       1 <0>         0.1125
     11 C10         3.4232   -4.2775    3.5091 C.3       1 <0>        -0.0339
     12 H1          3.1950   -4.9020    4.3728 H         1 <0>         0.1228
     13 C11         3.5349   -2.7899    3.9160 C.3       1 <0>        -0.1436
     14 C12         2.1486   -2.2332    3.6773 C.2       1 <0>         0.5236
     15 O1          1.7356   -1.1832    4.1221 O.2       1 <0>        -0.5209
     16 C13         4.6816   -4.7464    2.8253 C.2       1 <0>         0.3427
     17 N2          4.9034   -4.6355    1.5662 N.2       1 <0>        -0.3496
     18 O2          6.1705   -5.1657    1.2250 O.3       1 <0>        -0.1958
     19 C14         6.7511   -5.6431    2.4490 C.3       1 <0>         0.2955
     20 H2          7.6774   -5.1106    2.6647 H         1 <0>         0.1114
     21 N3          5.7385   -5.3414    3.4735 N.pl3     1 <0>        -0.7391
     22 C15         7.0079   -7.1493    2.3677 C.3       1 <0>        -0.1954
     23 H3          7.4224   -7.4700    3.3234 H         1 <0>         0.1368
     24 C16         8.0553   -7.3895    1.2977 C.2       1 <0>        -0.0323
     25 C17         7.7199   -8.1919    0.2760 C.2       1 <0>        -0.2168
     26 C18         6.4447   -8.7839    0.2053 C.2       1 <0>         0.2895
     27 N4          5.5066   -8.6120    1.0963 N.2       1 <0>        -0.5750
     28 C19         5.6738   -7.8427    2.1789 C.2       1 <0>         0.5146
     29 O3          4.7793   -7.7043    2.9884 O.2       1 <0>        -0.4384
     30 H4          1.0042    1.8801    0.0026 H         1 <0>         0.0702
     31 H5         -0.5455    1.8639   -0.8728 H         1 <0>         0.0666
     32 H6         -0.5286    1.8543    0.9071 H         1 <0>         0.0670
     33 H7         -0.0064   -0.1437   -2.1314 H         1 <0>         0.1215
     34 H8          0.0266   -2.6056   -2.1449 H         1 <0>         0.1230
     35 H9          0.0540   -3.8484   -0.0191 H         1 <0>         0.1205
     36 H10         0.0246   -0.1666    2.1333 H         1 <0>         0.1250
     37 H11        -0.4637   -2.2663    3.2539 H         1 <0>         0.0943
     38 H12        -0.4484   -3.8028    2.3555 H         1 <0>         0.0911
     39 H13         1.6407   -5.1533    2.6172 H         1 <0>         0.0907
     40 H14         2.5991   -4.1381    1.4988 H         1 <0>         0.0926
     41 H15         3.8088   -2.7015    4.9673 H         1 <0>         0.1134
     42 H16         4.2617   -2.2759    3.2869 H         1 <0>         0.1111
     43 H17         5.8035   -5.5277    4.4232 H         1 <0>         0.4316
     44 H18         9.0322   -6.9326    1.3556 H         1 <0>         0.1539
     45 H19         8.4399   -8.3864   -0.5052 H         1 <0>         0.1496
     46 H20         6.2288   -9.4204   -0.6401 H         1 <0>         0.1665
@<TRIPOS>BOND
     1    1    2 1
     2    1   30 1
     3    1   31 1
     4    1   32 1
     5    2    7 ar
     6    2    3 ar
     7    3    4 ar
     8    3   33 1
     9    4    5 ar
    10    4   34 1
    11    5    6 ar
    12    5   35 1
    13    6    7 ar
    14    6    8 1
    15    7   36 1
    16    8    9 1
    17    8   37 1
    18    8   38 1
    19    9   14 am
    20    9   10 1
    21   10   11 1
    22   10   39 1
    23   10   40 1
    24   11   12 1
    25   11   13 1
    26   11   16 1
    27   13   14 1
    28   13   41 1
    29   13   42 1
    30   14   15 2
    31   16   21 1
    32   16   17 2
    33   17   18 1
    34   18   19 1
    35   19   20 1
    36   19   21 1
    37   19   22 1
    38   21   43 1
    39   22   23 1
    40   22   28 1
    41   22   24 1
    42   24   25 2
    43   24   44 1
    44   25   26 1
    45   25   45 1
    46   26   27 2
    47   26   46 1
    48   27   28 1
    49   28   29 2
@<TRIPOS>MOLECULE
ZINC67009194
   34    35     0     0     0
SMALL
USER_CHARGES

@<TRIPOS>ATOM
      1 C1         -0.0173    1.4248    0.0099 C.3       1 <0>         0.0213
      2 O1          0.0021   -0.0041    0.0020 O.3       1 <0>        -0.2976
      3 C2          0.6063   -0.6076   -1.0566 C.ar      1 <0>         0.1069
      4 C3          1.1699    0.1576   -2.0569 C.ar      1 <0>        -0.1207
      5 C4          1.7918   -0.4670   -3.1456 C.ar      1 <0>        -0.1641
      6 C5          1.8379   -1.8658   -3.2123 C.ar      1 <0>        -0.0368
      7 C6          1.2721   -2.6214   -2.2082 C.ar      1 <0>        -0.1635
      8 C7          0.6608   -1.9999   -1.1273 C.ar      1 <0>         0.1429
      9 O2          0.1098   -2.7496   -0.1388 O.3       1 <0>        -0.2775
     10 C8          0.2009   -4.1693   -0.2738 C.3       1 <0>         0.0484
     11 C9         -0.4605   -4.8298    0.9084 C.2       1 <0>         0.5532
     12 O3         -0.9604   -4.1518    1.7802 O.2       1 <0>        -0.4672
     13 N1         -0.4962   -6.1742    0.9963 N.am      1 <0>        -0.5814
     14 C10        -1.1129   -6.9405    2.0895 C.3       1 <0>         0.0825
     15 C11        -0.8703   -8.4097    1.6931 C.3       1 <0>         0.0891
     16 N2         -0.1426   -8.3153    0.4187 N.am      1 <0>        -0.7230
     17 C12         0.0194   -7.0246    0.0990 C.2       1 <0>         0.6996
     18 O4          0.5864   -6.6583   -0.9117 O.2       1 <0>        -0.5537
     19 Br1         2.6752   -2.7162   -4.6791 Br        1 <0>        -0.0051
     20 C13         2.3929    0.3412   -4.2133 C.2       1 <0>         0.3689
     21 O5          2.9310   -0.2017   -5.1552 O.2       1 <0>        -0.4270
     22 H1          1.0053    1.8021    0.0021 H         1 <0>         0.0591
     23 H2         -0.5445    1.7859   -0.8732 H         1 <0>         0.0591
     24 H3         -0.5275    1.7763    0.9067 H         1 <0>         0.1061
     25 H4          1.1313    1.2355   -2.0008 H         1 <0>         0.1547
     26 H5          1.3079   -3.6995   -2.2601 H         1 <0>         0.1551
     27 H6         -0.2999   -4.4800   -1.1907 H         1 <0>         0.1117
     28 H7          1.2496   -4.4638   -0.3148 H         1 <0>         0.1117
     29 H8         -0.6252   -6.7145    3.0377 H         1 <0>         0.1031
     30 H9         -2.1810   -6.7314    2.1481 H         1 <0>         0.1028
     31 H10        -0.2621   -8.9133    2.4445 H         1 <0>         0.0963
     32 H11        -1.8180   -8.9302    1.5549 H         1 <0>         0.0961
     33 H12         0.1671   -9.0681   -0.1088 H         1 <0>         0.4393
     34 H13         2.3561    1.4193   -4.1604 H         1 <0>         0.1097
@<TRIPOS>BOND
     1    1    2 1
     2    1   22 1
     3    1   23 1
     4    1   24 1
     5    2    3 1
     6    3    8 ar
     7    3    4 ar
     8    4    5 ar
     9    4   25 1
    10    5    6 ar
    11    5   20 1
    12    6    7 ar
    13    6   19 1
    14    7    8 ar
    15    7   26 1
    16    8    9 1
    17    9   10 1
    18   10   11 1
    19   10   27 1
    20   10   28 1
    21   11   12 2
    22   11   13 am
    23   13   17 am
    24   13   14 1
    25   14   15 1
    26   14   29 1
    27   14   30 1
    28   15   16 1
    29   15   31 1
    30   15   32 1
    31   16   17 am
    32   16   33 1
    33   17   18 2
    34   20   21 2
    35   20   34 1
@<TRIPOS>MOLECULE
ZINC12384124
   47    48     0     0     0
SMALL
USER_CHARGES
(3R)-3-[(S)-hydroxy-(3-nitrophenyl)methyl]-2,2,6,6-tetramethyl-piperidin-4-one oxime
@<TRIPOS>ATOM
      1 C1         -2.6222    2.5066    4.9697 C.3       1 <0>        -0.1843
      2 C2         -2.2654    2.8000    3.4959 C.3       1 <0>         0.0699
      3 C3         -3.5090    3.3987    2.8315 C.3       1 <0>        -0.0655
      4 C4         -3.0919    4.0272    1.5198 C.2       1 <0>         0.0934
      5 N1         -3.6398    3.7005    0.4137 N.2       1 <0>        -0.2801
      6 O1         -2.8595    3.6152   -0.7649 O.3       1 <0>        -0.3777
      7 C5         -1.9933    5.0653    1.5887 C.3       1 <0>        -0.1141
      8 H1         -2.3388    5.9284    2.1593 H         1 <0>         0.1237
      9 C6         -0.7791    4.4407    2.2820 C.3       1 <0>         0.0734
     10 C7         -0.0202    3.5652    1.2776 C.3       1 <0>        -0.1767
     11 C8          0.1652    5.5928    2.6909 C.3       1 <0>        -0.2053
     12 C9         -1.6104    5.5065    0.1741 C.3       1 <0>         0.1566
     13 H2         -1.2954    4.6381   -0.4045 H         1 <0>         0.1539
     14 C10        -2.8003    6.1488   -0.4912 C.ar      1 <0>        -0.1253
     15 C11        -3.9927    6.2747    0.1971 C.ar      1 <0>        -0.0779
     16 C12        -5.0839    6.8641   -0.4129 C.ar      1 <0>        -0.1087
     17 C13        -4.9830    7.3279   -1.7115 C.ar      1 <0>        -0.0452
     18 C14        -3.7911    7.2016   -2.3997 C.ar      1 <0>        -0.0364
     19 C15        -2.6979    6.6171   -1.7875 C.ar      1 <0>        -0.0286
     20 N2         -3.6832    7.6976   -3.7902 N.pl3     1 <0>         0.0202
     21 O2         -4.6448    8.2170   -4.3278 O.2       1 <0>        -0.1458
     22 O3         -2.6329    7.5863   -4.3967 O.3       1 <0>        -0.1469
     23 O4         -0.5374    6.4478    0.2428 O.3       1 <0>        -0.5375
     24 C16        -1.9349    1.4586    2.8312 C.3       1 <0>        -0.1742
     25 H3         -1.7721    2.0347    5.4624 H         1 <0>         0.0882
     26 H4         -2.8642    3.4401    5.4777 H         1 <0>         0.0845
     27 H5         -3.4821    1.8379    5.0092 H         1 <0>         0.1101
     28 H6         -4.2419    2.6127    2.6465 H         1 <0>         0.1331
     29 H7         -3.9442    4.1582    3.4818 H         1 <0>         0.1109
     30 H8         -3.3722    3.4297   -1.5635 H         1 <0>         0.4123
     31 H9          0.3121    4.1782    0.4398 H         1 <0>         0.1162
     32 H10         0.8454    3.1182    1.7666 H         1 <0>         0.0835
     33 H11        -0.6786    2.7770    0.9125 H         1 <0>         0.0823
     34 H12        -0.3567    6.2665    3.3705 H         1 <0>         0.0780
     35 H13         1.0438    5.1830    3.1892 H         1 <0>         0.0832
     36 H14         0.4749    6.1417    1.8016 H         1 <0>         0.1351
     37 H15        -4.0714    5.9127    1.2116 H         1 <0>         0.1366
     38 H16        -6.0152    6.9628    0.1249 H         1 <0>         0.1511
     39 H17        -5.8356    7.7885   -2.1881 H         1 <0>         0.1595
     40 H18        -1.7651    6.5227   -2.3237 H         1 <0>         0.1590
     41 H19        -0.7473    7.2476    0.7442 H         1 <0>         0.3836
     42 H20        -2.8015    0.8001    2.8913 H         1 <0>         0.1082
     43 H21        -1.6770    1.6251    1.7853 H         1 <0>         0.0826
     44 H22        -1.0914    0.9969    3.3444 H         1 <0>         0.0853
     45 N3         -1.0842    3.7075    3.5430 N.4       1 <0>        -0.5102
     46 H23        -0.2621    3.1422    3.7855 H         1 <0>         0.4356
     47 H24        -1.2506    4.4032    4.2795 H         1 <0>         0.4301
@<TRIPOS>BOND
     1    1    2 1
     2    1   25 1
     3    1   26 1
     4    1   27 1
     5    2    3 1
     6    2   24 1
     7    2   45 1
     8    3    4 1
     9    3   28 1
    10    3   29 1
    11    4    5 2
    12    4    7 1
    13    5    6 1
    14    6   30 1
    15    7    8 1
    16    7    9 1
    17    7   12 1
    18    9   10 1
    19    9   11 1
    20    9   45 1
    21   10   31 1
    22   10   32 1
    23   10   33 1
    24   11   34 1
    25   11   35 1
    26   11   36 1
    27   12   13 1
    28   12   14 1
    29   12   23 1
    30   14   19 ar
    31   14   15 ar
    32   15   16 ar
    33   15   37 1
    34   16   17 ar
    35   16   38 1
    36   17   18 ar
    37   17   39 1
    38   18   19 ar
    39   18   20 1
    40   19   40 1
    41   20   21 2
    42   20   22 1
    43   23   41 1
    44   24   42 1
    45   24   43 1
    46   24   44 1
    47   45   46 1
    48   45   47 1
@<TRIPOS>MOLECULE
ZINC13124720
   41    43     0     0     0
SMALL
USER_CHARGES

@<TRIPOS>ATOM
      1 C1          0.1741    1.5065    0.0130 C.3       1 <0>        -0.1095
      2 C2          0.1994   -0.0003    0.0046 C.ar      1 <0>         0.1959
      3 C3          0.2433   -0.6944   -1.1946 C.ar      1 <0>        -0.2255
      4 C4          0.2654   -2.0800   -1.1581 C.ar      1 <0>         0.2031
      5 N1          0.2441   -2.6951    0.0126 N.ar      1 <0>        -0.5004
      6 C5          0.2021   -2.0017    1.1415 C.ar      1 <0>         0.2797
      7 N2          0.1855   -0.6762    1.1413 N.ar      1 <0>        -0.5444
      8 S1          0.1749   -2.8621    2.6790 S.3       1 <0>         0.1197
      9 C6          0.1194   -1.5406    3.9204 C.3       1 <0>        -0.1155
     10 C7          0.0923   -2.1477    5.2995 C.2       1 <0>         0.4608
     11 N3          0.0451   -1.3560    6.3583 N.pl3     1 <0>        -0.5912
     12 C8          0.0204   -1.8670    7.5824 C.cat     1 <0>         0.7207
     13 N4          0.0437   -3.2186    7.7458 N.pl3     1 <0>        -0.5783
     14 C9          0.0921   -4.0190    6.6387 C.2       1 <0>         0.4253
     15 C10         0.1181   -5.4788    6.7816 C.2       1 <0>        -0.1598
     16 C11         0.0297   -6.3005    5.6518 C.2       1 <0>        -0.0443
     17 C12         0.0546   -7.6683    5.7927 C.2       1 <0>        -0.1531
     18 C13         0.1671   -8.2480    7.0504 C.2       1 <0>        -0.0062
     19 C14         0.2556   -7.4644    8.1768 C.2       1 <0>        -0.2216
     20 C15         0.2385   -6.0685    8.0616 C.2       1 <0>         0.3502
     21 O1          0.3294   -5.3029    9.1486 O.2       1 <0>        -0.5878
     22 N5          0.1107   -3.4628    5.4315 N.2       1 <0>        -0.4691
     23 N6         -0.0274   -1.0440    8.6700 N.pl3     1 <0>        -0.7510
     24 C16         0.3127   -2.8758   -2.4369 C.3       1 <0>        -0.1133
     25 H1          1.1952    1.8869    0.0377 H         1 <0>         0.0906
     26 H2         -0.3261    1.8665   -0.8861 H         1 <0>         0.0879
     27 H3         -0.3653    1.8559    0.8934 H         1 <0>         0.0823
     28 H4          0.2596   -0.1671   -2.1369 H         1 <0>         0.1552
     29 H5          1.0021   -0.9092    3.8187 H         1 <0>         0.1575
     30 H6         -0.7770   -0.9388    3.7707 H         1 <0>         0.1576
     31 H7         -0.0585   -5.8604    4.6695 H         1 <0>         0.1481
     32 H8         -0.0143   -8.2976    4.9177 H         1 <0>         0.1440
     33 H9          0.1849   -9.3237    7.1441 H         1 <0>         0.1423
     34 H10         0.3428   -7.9251    9.1498 H         1 <0>         0.1458
     35 H11        -0.0435   -0.0817    8.5496 H         1 <0>         0.4521
     36 H12         1.3512   -3.0506   -2.7179 H         1 <0>         0.0933
     37 H13        -0.1894   -3.8319   -2.2887 H         1 <0>         0.0886
     38 H14        -0.1896   -2.3206   -3.2291 H         1 <0>         0.0882
     39 H15         0.0265   -3.6075    8.6342 H         1 <0>         0.4622
     40 H16        -0.0453   -1.4214    9.5634 H         1 <0>         0.4571
     41 H17         0.0286   -0.3936    6.2386 H         1 <0>         0.4625
@<TRIPOS>BOND
     1    1    2 1
     2    1   25 1
     3    1   26 1
     4    1   27 1
     5    2    7 ar
     6    2    3 ar
     7    3    4 ar
     8    3   28 1
     9    4    5 ar
    10    4   24 1
    11    5    6 ar
    12    6    7 ar
    13    6    8 1
    14    8    9 1
    15    9   10 1
    16    9   29 1
    17    9   30 1
    18   10   22 2
    19   10   11 1
    20   11   12 2
    21   11   41 1
    22   12   13 1
    23   12   23 1
    24   13   14 1
    25   13   39 1
    26   14   15 2
    27   14   22 1
    28   15   20 1
    29   15   16 1
    30   16   17 2
    31   16   31 1
    32   17   18 1
    33   17   32 1
    34   18   19 2
    35   18   33 1
    36   19   20 1
    37   19   34 1
    38   20   21 2
    39   23   35 1
    40   23   40 1
    41   24   36 1
    42   24   37 1
    43   24   38 1
@<TRIPOS>MOLECULE
ZINC45462486
   38    39     0     0     0
SMALL
USER_CHARGES

@<TRIPOS>ATOM
      1 C1         -0.0187    1.5258    0.0104 C.3       1 <0>        -0.1632
      2 C2          0.0021   -0.0041    0.0020 C.3       1 <0>         0.0468
      3 C3          0.7421   -0.5109    1.2415 C.3       1 <0>         0.0389
      4 O1          2.0827   -0.0163    1.2314 O.3       1 <0>        -0.2710
      5 C4          2.8812   -0.3764    2.2708 C.ar      1 <0>         0.1755
      6 C5          2.3864   -1.1937    3.2764 C.ar      1 <0>        -0.1962
      7 C6          3.1999   -1.5588    4.3315 C.ar      1 <0>        -0.0070
      8 C7          4.5069   -1.1105    4.3863 C.ar      1 <0>        -0.0619
      9 C8          5.0034   -0.2959    3.3857 C.ar      1 <0>        -0.0057
     10 C9          4.1951    0.0683    2.3248 C.ar      1 <0>        -0.0644
     11 Cl1         4.8206    1.0859    1.0650 Cl        1 <0>        -0.0067
     12 N1          5.3757   -1.5032    5.5183 N.pl3     1 <0>         0.0305
     13 O2          4.9425   -2.2152    6.3941 O.2       1 <0>        -0.1430
     14 O3          6.5186   -1.1119    5.5673 O.3       1 <0>        -0.1399
     15 C10         0.7074   -0.4901   -1.2379 C.2       1 <0>         0.5119
     16 O4          1.5216    0.2194   -1.7898 O.2       1 <0>        -0.4551
     17 N2          0.4335   -1.7132   -1.7333 N.am      1 <0>        -0.8491
     18 N3         -1.3761   -0.5125    0.0124 N.4       1 <0>        -0.4701
     19 C11        -2.0866   -0.0259   -1.1777 C.3       1 <0>        -0.0966
     20 C12        -3.2837    0.9007   -0.9561 C.3       1 <0>        -0.1451
     21 C13        -3.5075   -0.5424   -1.4126 C.3       1 <0>        -0.1440
     22 H1          1.0039    1.9031    0.0027 H         1 <0>         0.1254
     23 H2         -0.5459    1.8868   -0.8726 H         1 <0>         0.0951
     24 H3         -0.5289    1.8773    0.9072 H         1 <0>         0.0946
     25 H4          0.2319   -0.1594    2.1383 H         1 <0>         0.1095
     26 H5          0.7568   -1.6008    1.2356 H         1 <0>         0.0972
     27 H6          1.3656   -1.5440    3.2347 H         1 <0>         0.1572
     28 H7          2.8146   -2.1948    5.1147 H         1 <0>         0.1694
     29 H8          6.0245    0.0529    3.4307 H         1 <0>         0.1775
     30 H9         -0.2176   -2.2806   -1.2919 H         1 <0>         0.3947
     31 H10         0.8876   -2.0260   -2.5314 H         1 <0>         0.4289
     32 H11        -1.3624   -1.5214    0.0069 H         1 <0>         0.4248
     33 H12        -1.4654    0.1549   -2.0549 H         1 <0>         0.1774
     34 H13        -3.5441    1.1492    0.0728 H         1 <0>         0.1262
     35 H14        -3.4502    1.6915   -1.6875 H         1 <0>         0.1382
     36 H15        -3.8212   -0.7009   -2.4443 H         1 <0>         0.1387
     37 H16        -3.9151   -1.2432   -0.6840 H         1 <0>         0.1256
     38 H17        -1.8484   -0.1871    0.8426 H         1 <0>         0.4351
@<TRIPOS>BOND
     1    1    2 1
     2    1   22 1
     3    1   23 1
     4    1   24 1
     5    2    3 1
     6    2   15 1
     7    2   18 1
     8    3    4 1
     9    3   25 1
    10    3   26 1
    11    4    5 1
    12    5   10 ar
    13    5    6 ar
    14    6    7 ar
    15    6   27 1
    16    7    8 ar
    17    7   28 1
    18    8    9 ar
    19    8   12 1
    20    9   10 ar
    21    9   29 1
    22   10   11 1
    23   12   13 2
    24   12   14 1
    25   15   16 2
    26   15   17 am
    27   17   30 1
    28   17   31 1
    29   18   19 1
    30   18   32 1
    31   18   38 1
    32   19   21 1
    33   19   20 1
    34   19   33 1
    35   20   21 1
    36   20   34 1
    37   20   35 1
    38   21   36 1
    39   21   37 1
@<TRIPOS>MOLECULE
ZINC52712316
   48    49     0     0     0
SMALL
USER_CHARGES

@<TRIPOS>ATOM
      1 C1         -0.4712    0.7222   -0.1101 C.3       1 <0>        -0.1547
      2 C2         -0.3350   -0.7957    0.0253 C.3       1 <0>         0.0523
      3 O1          0.4329   -1.1029    1.1907 O.3       1 <0>        -0.3135
      4 C3          0.6488   -2.4182    1.4585 C.ar      1 <0>         0.1477
      5 C4          0.1387   -3.3896    0.6166 C.ar      1 <0>        -0.1725
      6 C5          0.3516   -4.7348    0.8791 C.ar      1 <0>        -0.0814
      7 C6          1.0763   -5.1214    1.9847 C.ar      1 <0>        -0.1010
      8 C7          1.5976   -4.1527    2.8428 C.ar      1 <0>        -0.1036
      9 C8          1.3894   -2.7901    2.5786 C.ar      1 <0>         0.0415
     10 O2          2.0038   -2.0936    3.5569 O.3       1 <0>        -0.1890
     11 C9          2.5996   -2.9213    4.4325 C.2       1 <0>        -0.0556
     12 C10         2.3935   -4.1965    4.0753 C.2       1 <0>        -0.1248
     13 C11         3.3755   -2.4798    5.6466 C.3       1 <0>         0.1262
     14 H1          3.4433   -3.3058    6.3546 H         1 <0>         0.1708
     15 C12         4.7829   -2.0528    5.2249 C.3       1 <0>        -0.1847
     16 N1          2.6893   -1.3464    6.2808 N.4       1 <0>        -0.4971
     17 C13         1.3903   -1.7907    6.8036 C.3       1 <0>         0.0052
     18 H2          0.8229   -2.2709    6.0064 H         1 <0>         0.1691
     19 C14         1.6130   -2.7874    7.9428 C.3       1 <0>        -0.1819
     20 C15         0.6230   -0.6008    7.3199 C.2       1 <0>         0.5183
     21 O3          1.1101    0.5077    7.2584 O.2       1 <0>        -0.4501
     22 N2         -0.6047   -0.7691    7.8499 N.am      1 <0>        -0.6753
     23 C16        -1.2909    0.2951    8.3117 C.2       1 <0>         0.6903
     24 O4         -0.8026    1.4063    8.2501 O.2       1 <0>        -0.5151
     25 N3         -2.5186    0.1268    8.8417 N.am      1 <0>        -0.7301
     26 C17        -3.2645    1.2835    9.3436 C.3       1 <0>         0.0971
     27 H3          0.5188    1.1694   -0.1991 H         1 <0>         0.0685
     28 H4         -1.0570    0.9566   -0.9990 H         1 <0>         0.0863
     29 H5         -0.9726    1.1221    0.7713 H         1 <0>         0.0670
     30 H6         -1.3251   -1.2428    0.1143 H         1 <0>         0.0686
     31 H7          0.1664   -1.1956   -0.8560 H         1 <0>         0.0696
     32 H8         -0.4311   -3.0980   -0.2533 H         1 <0>         0.1487
     33 H9         -0.0533   -5.4828    0.2135 H         1 <0>         0.1436
     34 H10         1.2401   -6.1696    2.1866 H         1 <0>         0.1394
     35 H11         2.7510   -5.0787    4.5855 H         1 <0>         0.1740
     36 H12         5.3147   -1.6516    6.0877 H         1 <0>         0.0971
     37 H13         5.3227   -2.9155    4.8344 H         1 <0>         0.1171
     38 H14         4.7140   -1.2870    4.4523 H         1 <0>         0.0906
     39 H15         3.2537   -0.9928    7.0387 H         1 <0>         0.4393
     40 H16         2.0775   -3.6914    7.5490 H         1 <0>         0.1029
     41 H17         2.2651   -2.3412    8.6937 H         1 <0>         0.0966
     42 H18         0.6549   -3.0396    8.3973 H         1 <0>         0.1131
     43 H19        -0.9944   -1.6560    7.8991 H         1 <0>         0.4175
     44 H20        -2.9083   -0.7601    8.8909 H         1 <0>         0.4045
     45 H21        -3.4232    1.9936    8.5320 H         1 <0>         0.0679
     46 H22        -4.2284    0.9538    9.7315 H         1 <0>         0.0890
     47 H23        -2.6971    1.7637   10.1408 H         1 <0>         0.0683
     48 H24         2.5456   -0.6162    5.5994 H         1 <0>         0.4420
@<TRIPOS>BOND
     1    1    2 1
     2    1   27 1
     3    1   28 1
     4    1   29 1
     5    2    3 1
     6    2   30 1
     7    2   31 1
     8    3    4 1
     9    4    9 ar
    10    4    5 ar
    11    5    6 ar
    12    5   32 1
    13    6    7 ar
    14    6   33 1
    15    7    8 ar
    16    7   34 1
    17    8   12 1
    18    8    9 ar
    19    9   10 1
    20   10   11 1
    21   11   12 2
    22   11   13 1
    23   12   35 1
    24   13   14 1
    25   13   15 1
    26   13   16 1
    27   15   36 1
    28   15   37 1
    29   15   38 1
    30   16   17 1
    31   16   39 1
    32   16   48 1
    33   17   18 1
    34   17   19 1
    35   17   20 1
    36   19   40 1
    37   19   41 1
    38   19   42 1
    39   20   21 2
    40   20   22 am
    41   22   23 am
    42   22   43 1
    43   23   24 2
    44   23   25 am
    45   25   26 1
    46   25   44 1
    47   26   45 1
    48   26   46 1
    49   26   47 1
@<TRIPOS>MOLECULE
ZINC13154400
   47    48     0     0     0
SMALL
USER_CHARGES

@<TRIPOS>ATOM
      1 C1         -0.0189    1.5417    0.0105 C.3       1 <0>        -0.1790
      2 C2          0.0021   -0.0041    0.0020 C.3       1 <0>         0.0607
      3 C3         -1.4518   -0.4801   -0.0395 C.3       1 <0>        -0.1186
      4 C4         -1.4764   -1.9575    0.2880 C.2       1 <0>         0.0998
      5 N1         -2.0124   -2.8134   -0.4925 N.2       1 <0>        -0.2883
      6 O1         -2.6072   -2.3901   -1.7058 O.3       1 <0>        -0.3904
      7 C5         -0.8312   -2.3599    1.5962 C.3       1 <0>        -0.0630
      8 H1         -1.3936   -1.9331    2.4287 H         1 <0>         0.1259
      9 C6          0.6031   -1.8288    1.6156 C.3       1 <0>         0.0682
     10 N2          0.7101   -0.4460    1.1892 N.4       1 <0>        -0.4913
     11 C7          1.4991   -2.7490    0.7801 C.3       1 <0>        -0.1823
     12 C8          1.1044   -1.9119    3.0763 C.3       1 <0>        -0.1993
     13 C9         -0.8202   -3.8859    1.7178 C.3       1 <0>         0.1671
     14 H2         -0.2543   -4.3122    0.8895 H         1 <0>         0.1318
     15 C10        -2.2351   -4.4032    1.6785 C.ar      1 <0>        -0.1346
     16 C11        -3.0232   -4.3477    2.8130 C.ar      1 <0>        -0.0625
     17 C12        -4.3208   -4.8221    2.7770 C.ar      1 <0>        -0.1156
     18 C13        -4.8309   -5.3518    1.6062 C.ar      1 <0>        -0.0428
     19 C14        -4.0433   -5.4065    0.4717 C.ar      1 <0>        -0.0539
     20 C15        -2.7467   -4.9279    0.5066 C.ar      1 <0>        -0.0025
     21 N3         -4.5892   -5.9740   -0.7816 N.pl3     1 <0>         0.0306
     22 O2         -5.7241   -6.3898   -0.8129 O.2       1 <0>        -0.1464
     23 O3         -3.9003   -6.0218   -1.7740 O.3       1 <0>        -0.1563
     24 O4         -0.2101   -4.2608    2.9545 O.3       1 <0>        -0.5349
     25 C16         0.7181   -0.4391   -1.2802 C.3       1 <0>        -0.1732
     26 H3          1.0037    1.9189    0.0028 H         1 <0>         0.0870
     27 H4         -0.5461    1.9027   -0.8725 H         1 <0>         0.1088
     28 H5         -0.5291    1.8932    0.9073 H         1 <0>         0.0836
     29 H6         -2.0416    0.0695    0.6950 H         1 <0>         0.1096
     30 H7         -1.8659   -0.3169   -1.0352 H         1 <0>         0.1293
     31 H8         -2.9866   -3.1090   -2.2296 H         1 <0>         0.4204
     32 H9          1.7054   -0.2286    1.0641 H         1 <0>         0.4305
     33 H10         1.1352   -2.7758   -0.2470 H         1 <0>         0.0809
     34 H11         2.5214   -2.3709    0.7936 H         1 <0>         0.0882
     35 H12         1.4782   -3.7549    1.1993 H         1 <0>         0.1172
     36 H13         1.0757   -2.9486    3.4118 H         1 <0>         0.1377
     37 H14         2.1277   -1.5406    3.1309 H         1 <0>         0.0869
     38 H15         0.4631   -1.3053    3.7156 H         1 <0>         0.0808
     39 H16        -2.6247   -3.9339    3.7276 H         1 <0>         0.1391
     40 H17        -4.9362   -4.7794    3.6634 H         1 <0>         0.1530
     41 H18        -5.8446   -5.7232    1.5782 H         1 <0>         0.1581
     42 H19        -2.1325   -4.9672   -0.3808 H         1 <0>         0.1595
     43 H20        -0.6620   -3.9155    3.7365 H         1 <0>         0.3833
     44 H21         1.7330   -0.0415   -1.2824 H         1 <0>         0.0856
     45 H22         0.7542   -1.5276   -1.3247 H         1 <0>         0.0803
     46 H23         0.1766   -0.0579   -2.1460 H         1 <0>         0.1055
     47 H24         0.4184    0.1505    1.9721 H         1 <0>         0.4251
@<TRIPOS>BOND
     1    1    2 1
     2    1   26 1
     3    1   27 1
     4    1   28 1
     5    2   10 1
     6    2    3 1
     7    2   25 1
     8    3    4 1
     9    3   29 1
    10    3   30 1
    11    4    5 2
    12    4    7 1
    13    5    6 1
    14    6   31 1
    15    7    8 1
    16    7    9 1
    17    7   13 1
    18    9   10 1
    19    9   11 1
    20    9   12 1
    21   10   32 1
    22   10   47 1
    23   11   33 1
    24   11   34 1
    25   11   35 1
    26   12   36 1
    27   12   37 1
    28   12   38 1
    29   13   14 1
    30   13   15 1
    31   13   24 1
    32   15   20 ar
    33   15   16 ar
    34   16   17 ar
    35   16   39 1
    36   17   18 ar
    37   17   40 1
    38   18   19 ar
    39   18   41 1
    40   19   20 ar
    41   19   21 1
    42   20   42 1
    43   21   22 2
    44   21   23 1
    45   24   43 1
    46   25   44 1
    47   25   45 1
    48   25   46 1
@<TRIPOS>MOLECULE
ZINC36851768
   43    45     0     0     0
SMALL
USER_CHARGES

@<TRIPOS>ATOM
      1 C1         -0.5098    1.3383   -0.2313 C.3       1 <0>        -0.6733
      2 S1         -0.3459   -0.4661   -0.3209 S.o2      1 <0>         2.6060
      3 O1          0.4301   -0.9419    0.7703 O.2       1 <0>        -0.9410
      4 O2         -1.6009   -1.0569   -0.6293 O.2       1 <0>        -0.9408
      5 N1          0.5912   -0.7424   -1.6580 N.pl3     1 <0>        -1.0069
      6 C2         -0.0247   -0.9201   -2.9801 C.3       1 <0>         0.1238
      7 C3          0.6193    0.0651   -3.9606 C.3       1 <0>        -0.1595
      8 C4          2.1378   -0.1241   -3.9441 C.3       1 <0>         0.0210
      9 C5          2.6750    0.1696   -2.5415 C.3       1 <0>        -0.1627
     10 C6          2.0547   -0.8084   -1.5459 C.3       1 <0>         0.1232
     11 N2          2.7562    0.7964   -4.9076 N.4       1 <0>        -0.4947
     12 C7          4.1961    0.5190   -4.9950 C.3       1 <0>        -0.0150
     13 H1          4.6486    0.5299   -4.0034 H         1 <0>         0.1932
     14 C8          4.4470   -0.8340   -5.6913 C.3       1 <0>        -0.1699
     15 C9          5.2429   -0.4574   -6.9219 C.2       1 <0>         0.5246
     16 O3          5.6519   -1.2337   -7.7583 O.2       1 <0>        -0.4262
     17 N3          5.4232    0.8690   -6.9409 N.am      1 <0>        -0.5345
     18 C10         4.8772    1.5205   -5.9021 C.2       1 <0>         0.5148
     19 O4          4.9203    2.7180   -5.7190 O.2       1 <0>        -0.4295
     20 C11         6.1584    1.5540   -8.0070 C.3       1 <0>         0.0363
     21 C12         6.5863    3.0008   -7.7531 C.3       1 <0>        -0.1754
     22 C13         5.4487    2.6999   -8.7309 C.3       1 <0>        -0.1697
     23 H2          0.4779    1.7883   -0.1314 H         1 <0>         0.1267
     24 H3         -0.9861    1.7054   -1.1403 H         1 <0>         0.1268
     25 H4         -1.1197    1.6053    0.6318 H         1 <0>         0.1361
     26 H5          0.1405   -1.9405   -3.3260 H         1 <0>         0.0918
     27 H6         -1.0947   -0.7233   -2.9141 H         1 <0>         0.1157
     28 H7          0.2403   -0.1215   -4.9654 H         1 <0>         0.1069
     29 H8          0.3765    1.0853   -3.6633 H         1 <0>         0.0965
     30 H9          2.3788   -1.1514   -4.2175 H         1 <0>         0.1515
     31 H10         3.7592    0.0574   -2.5362 H         1 <0>         0.1036
     32 H11         2.4129    1.1888   -2.2575 H         1 <0>         0.0983
     33 H12         2.3562   -0.5378   -0.5340 H         1 <0>         0.1155
     34 H13         2.3933   -1.8194   -1.7722 H         1 <0>         0.0915
     35 H14         2.3333    0.6678   -5.8146 H         1 <0>         0.4326
     36 H15         5.0266   -1.4953   -5.0472 H         1 <0>         0.1632
     37 H16         3.5034   -1.3014   -5.9728 H         1 <0>         0.1435
     38 H17         6.8286    0.9262   -8.5942 H         1 <0>         0.1564
     39 H18         6.3209    3.4430   -6.7928 H         1 <0>         0.1278
     40 H19         7.5384    3.3251   -8.1731 H         1 <0>         0.1160
     41 H20         5.6523    2.8263   -9.7942 H         1 <0>         0.1184
     42 H21         4.4348    2.9442   -8.4139 H         1 <0>         0.0980
     43 H22         2.6148    1.7476   -4.6024 H         1 <0>         0.4391
@<TRIPOS>BOND
     1    1    2 1
     2    1   23 1
     3    1   24 1
     4    1   25 1
     5    2    3 2
     6    2    4 2
     7    2    5 1
     8    5   10 1
     9    5    6 1
    10    6    7 1
    11    6   26 1
    12    6   27 1
    13    7    8 1
    14    7   28 1
    15    7   29 1
    16    8    9 1
    17    8   11 1
    18    8   30 1
    19    9   10 1
    20    9   31 1
    21    9   32 1
    22   10   33 1
    23   10   34 1
    24   11   12 1
    25   11   35 1
    26   11   43 1
    27   12   13 1
    28   12   18 1
    29   12   14 1
    30   14   15 1
    31   14   36 1
    32   14   37 1
    33   15   16 2
    34   15   17 am
    35   17   18 am
    36   17   20 1
    37   18   19 2
    38   20   22 1
    39   20   21 1
    40   20   38 1
    41   21   22 1
    42   21   39 1
    43   21   40 1
    44   22   41 1
    45   22   42 1
@<TRIPOS>MOLECULE
ZINC40634660
   49    51     0     0     0
SMALL
USER_CHARGES

@<TRIPOS>ATOM
      1 C1         -0.0173    1.4248    0.0099 C.3       1 <0>         0.0199
      2 O1          0.0021   -0.0041    0.0020 O.3       1 <0>        -0.3664
      3 C2         -1.2953   -0.6030    0.0112 C.3       1 <0>         0.0715
      4 H1         -2.0071    0.0456    0.5219 H         1 <0>         0.1129
      5 C3         -1.2425   -1.9872    0.6976 C.3       1 <0>        -0.1329
      6 C4         -2.1963   -2.8426   -0.1737 C.3       1 <0>         0.0066
      7 H2         -3.2349   -2.6663    0.1062 H         1 <0>         0.1686
      8 N1         -1.9333   -2.3497   -1.5499 N.4       1 <0>        -0.4989
      9 C5         -1.7649   -0.8831   -1.4284 C.3       1 <0>        -0.0318
     10 C6         -1.8564   -4.3060   -0.0549 C.2       1 <0>         0.5085
     11 O2         -1.2034   -4.8490   -0.9207 O.2       1 <0>        -0.5249
     12 N2         -2.2780   -5.0112    1.0134 N.am      1 <0>        -0.5838
     13 C7         -3.0761   -4.3737    2.0716 C.3       1 <0>         0.0998
     14 C8         -4.3265   -5.2246    2.3178 C.3       1 <0>         0.0381
     15 N3         -3.9254   -6.6109    2.5921 N.3       1 <0>        -0.5275
     16 C9         -3.2469   -7.2084    1.4343 C.3       1 <0>         0.0357
     17 C10        -1.9574   -6.4402    1.1489 C.3       1 <0>         0.1143
     18 C11        -5.0798   -7.4216    3.0020 C.3       1 <0>         0.0466
     19 C12        -4.5935   -8.7783    3.5157 C.3       1 <0>         0.0834
     20 H3         -3.9649   -9.2547    2.7635 H         1 <0>         0.0796
     21 C13        -5.8039   -9.6817    3.8353 C.3       1 <0>        -0.1530
     22 C14        -5.3449  -10.4009    5.1330 C.3       1 <0>        -0.1575
     23 C15        -4.5104   -9.2839    5.8088 C.3       1 <0>         0.0465
     24 O3         -3.8513   -8.6012    4.7279 O.3       1 <0>        -0.3627
     25 H4          1.0053    1.8021    0.0021 H         1 <0>         0.1036
     26 H5         -0.5445    1.7859   -0.8732 H         1 <0>         0.0517
     27 H6         -0.5275    1.7763    0.9067 H         1 <0>         0.0574
     28 H7         -0.2306   -2.3917    0.6728 H         1 <0>         0.1189
     29 H8         -1.6087   -1.9239    1.7223 H         1 <0>         0.1319
     30 H9         -1.0907   -2.7684   -1.9143 H         1 <0>         0.4416
     31 H10        -2.7152   -0.3822   -1.6131 H         1 <0>         0.1443
     32 H11        -1.0145   -0.5348   -2.1381 H         1 <0>         0.1476
     33 H12        -2.4882   -4.3133    2.9875 H         1 <0>         0.0996
     34 H13        -3.3705   -3.3729    1.7556 H         1 <0>         0.0858
     35 H14        -4.8736   -4.8282    3.1731 H         1 <0>         0.0984
     36 H15        -4.9640   -5.1985    1.4340 H         1 <0>         0.0402
     37 H16        -3.0111   -8.2507    1.6489 H         1 <0>         0.1011
     38 H17        -3.8994   -7.1547    0.5628 H         1 <0>         0.0405
     39 H18        -1.5126   -6.8051    0.2231 H         1 <0>         0.1040
     40 H19        -1.2599   -6.5823    1.9744 H         1 <0>         0.0933
     41 H20        -5.6227   -6.9064    3.7944 H         1 <0>         0.0858
     42 H21        -5.7399   -7.5720    2.1477 H         1 <0>         0.0477
     43 H22        -6.6967   -9.0838    4.0182 H         1 <0>         0.0789
     44 H23        -5.9743  -10.4000    3.0333 H         1 <0>         0.0839
     45 H24        -6.1988  -10.6810    5.7499 H         1 <0>         0.0860
     46 H25        -4.7268  -11.2688    4.9036 H         1 <0>         0.0804
     47 H26        -5.1632   -8.5977    6.3484 H         1 <0>         0.0606
     48 H27        -3.7745   -9.7182    6.4855 H         1 <0>         0.0875
     49 H28        -2.7161   -2.5607   -2.1506 H         1 <0>         0.4366
@<TRIPOS>BOND
     1    1    2 1
     2    1   25 1
     3    1   26 1
     4    1   27 1
     5    2    3 1
     6    3    4 1
     7    3    9 1
     8    3    5 1
     9    5    6 1
    10    5   28 1
    11    5   29 1
    12    6    7 1
    13    6    8 1
    14    6   10 1
    15    8    9 1
    16    8   30 1
    17    8   49 1
    18    9   31 1
    19    9   32 1
    20   10   11 2
    21   10   12 am
    22   12   17 1
    23   12   13 1
    24   13   14 1
    25   13   33 1
    26   13   34 1
    27   14   15 1
    28   14   35 1
    29   14   36 1
    30   15   16 1
    31   15   18 1
    32   16   17 1
    33   16   37 1
    34   16   38 1
    35   17   39 1
    36   17   40 1
    37   18   19 1
    38   18   41 1
    39   18   42 1
    40   19   20 1
    41   19   24 1
    42   19   21 1
    43   21   22 1
    44   21   43 1
    45   21   44 1
    46   22   23 1
    47   22   45 1
    48   22   46 1
    49   23   24 1
    50   23   47 1
    51   23   48 1
@<TRIPOS>MOLECULE
ZINC49093143
   42    43     0     0     0
SMALL
USER_CHARGES

@<TRIPOS>ATOM
      1 C1         -0.0187    1.5258    0.0104 C.3       1 <0>        -0.1659
      2 C2          0.0021   -0.0041    0.0020 C.3       1 <0>         0.1430
      3 H1         -1.0205   -0.3814    0.0098 H         1 <0>         0.1082
      4 C3          0.7182   -0.4975   -1.2568 C.3       1 <0>         0.0688
      5 H2          0.8297   -1.5814   -1.2276 H         1 <0>         0.0808
      6 C4         -0.0658   -0.0714   -2.5235 C.3       1 <0>        -0.1520
      7 C5          1.0684   -0.0664   -3.5844 C.3       1 <0>        -0.1568
      8 C6          2.2872    0.3985   -2.7588 C.3       1 <0>         0.0511
      9 O1          2.0032    0.1328   -1.3788 O.3       1 <0>        -0.3805
     10 N1          0.7106   -0.4894    1.1889 N.am      1 <0>        -0.6900
     11 C7          0.0512   -0.6335    2.3554 C.2       1 <0>         0.4989
     12 O2         -1.1288   -0.3614    2.4226 O.2       1 <0>        -0.5287
     13 C8          0.7801   -1.1327    3.5763 C.3       1 <0>        -0.0333
     14 N2         -0.1523   -1.2010    4.7095 N.4       1 <0>        -0.3829
     15 C9         -0.6284    0.1481    5.0218 C.3       1 <0>        -0.0146
     16 C10        -1.8483    0.0700    5.9460 C.3       1 <0>        -0.6359
     17 S1         -1.3368   -0.7018    7.5119 S.o2      1 <0>         2.4139
     18 O3         -2.5015   -1.0875    8.2287 O.2       1 <0>        -0.8930
     19 O4         -0.3816    0.1409    8.1417 O.2       1 <0>        -0.8996
     20 C11        -0.4944   -2.2029    6.9230 C.3       1 <0>        -0.6464
     21 C12         0.5311   -1.7983    5.8585 C.3       1 <0>        -0.0009
     22 H3          1.0039    1.9031    0.0027 H         1 <0>         0.0732
     23 H4         -0.5459    1.8868   -0.8726 H         1 <0>         0.0772
     24 H5         -0.5289    1.8773    0.9072 H         1 <0>         0.0605
     25 H6         -0.8348   -0.8023   -2.7739 H         1 <0>         0.0899
     26 H7         -0.4958    0.9230   -2.4034 H         1 <0>         0.0887
     27 H8          1.2298   -1.0674   -3.9844 H         1 <0>         0.0811
     28 H9          0.8486    0.6412   -4.3839 H         1 <0>         0.0898
     29 H10         3.1746   -0.1553   -3.0655 H         1 <0>         0.0747
     30 H11         2.4475    1.4666   -2.9054 H         1 <0>         0.0754
     31 H12         1.6544   -0.7070    1.1351 H         1 <0>         0.4165
     32 H13         1.1839   -2.1254    3.3778 H         1 <0>         0.1689
     33 H14         1.5952   -0.4503    3.8172 H         1 <0>         0.1685
     34 H15         0.1659    0.7066    5.5171 H         1 <0>         0.1501
     35 H16        -0.9055    0.6570    4.0986 H         1 <0>         0.1701
     36 H17        -2.2266    1.0739    6.1389 H         1 <0>         0.1827
     37 H18        -2.6253   -0.5336    5.4768 H         1 <0>         0.1591
     38 H19         0.0143   -2.6881    7.7560 H         1 <0>         0.1846
     39 H20        -1.2242   -2.8856    6.4879 H         1 <0>         0.1586
     40 H21         1.0825   -2.6805    5.5333 H         1 <0>         0.1587
     41 H22         1.2266   -1.0741    6.2826 H         1 <0>         0.1550
     42 H23        -0.9398   -1.7786    4.4557 H         1 <0>         0.4329
@<TRIPOS>BOND
     1    1    2 1
     2    1   22 1
     3    1   23 1
     4    1   24 1
     5    2    3 1
     6    2    4 1
     7    2   10 1
     8    4    5 1
     9    4    9 1
    10    4    6 1
    11    6    7 1
    12    6   25 1
    13    6   26 1
    14    7    8 1
    15    7   27 1
    16    7   28 1
    17    8    9 1
    18    8   29 1
    19    8   30 1
    20   10   11 am
    21   10   31 1
    22   11   12 2
    23   11   13 1
    24   13   14 1
    25   13   32 1
    26   13   33 1
    27   14   21 1
    28   14   15 1
    29   14   42 1
    30   15   16 1
    31   15   34 1
    32   15   35 1
    33   16   17 1
    34   16   36 1
    35   16   37 1
    36   17   18 2
    37   17   19 2
    38   17   20 1
    39   20   21 1
    40   20   38 1
    41   20   39 1
    42   21   40 1
    43   21   41 1
@<TRIPOS>MOLECULE
ZINC58881068
   45    46     0     0     0
SMALL
USER_CHARGES

@<TRIPOS>ATOM
      1 C1         -0.1013    1.2809   -0.0153 C.3       1 <0>        -0.0534
      2 N1         -0.2284   -0.1803    0.0676 N.4       1 <0>        -0.3855
      3 C2          0.3541   -0.7914   -1.1345 C.3       1 <0>        -0.0458
      4 C3          0.4821   -0.6669    1.2577 C.3       1 <0>        -0.0115
      5 C4         -0.2025   -0.1290    2.5158 C.3       1 <0>         0.0267
      6 N2          0.5080   -0.6156    3.7059 N.3       1 <0>        -0.5330
      7 C5          1.8620   -0.0492    3.7793 C.3       1 <0>         0.0478
      8 C6          2.5949   -0.6406    4.9857 C.3       1 <0>         0.0494
      9 N3          1.8365   -0.3451    6.2094 N.3       1 <0>        -0.5364
     10 C7          0.4825   -0.9115    6.1360 C.3       1 <0>         0.0479
     11 C8         -0.2504   -0.3201    4.9296 C.3       1 <0>         0.0583
     12 C9          2.5470   -0.8317    7.3995 C.3       1 <0>         0.0828
     13 H1          2.6768   -1.9102    7.3088 H         1 <0>         0.0898
     14 C10         3.9422   -0.1693    7.4461 C.3       1 <0>        -0.5719
     15 S1          3.6508    1.1998    8.6494 S.o2      1 <0>         2.3759
     16 O1          3.0485    2.2972    7.9769 O.2       1 <0>        -0.9140
     17 O2          4.8254    1.4050    9.4224 O.2       1 <0>        -0.9282
     18 C11         2.3812    0.3427    9.6795 C.3       1 <0>        -0.6140
     19 C12         1.6924   -0.5470    8.6254 C.3       1 <0>         0.1070
     20 H2          0.7744   -0.0557    8.3030 H         1 <0>         0.0924
     21 O3          1.3467   -1.7903    9.2391 O.3       1 <0>        -0.5560
     22 H3          0.9525    1.5505   -0.0857 H         1 <0>         0.1225
     23 H4         -0.6284    1.6420   -0.8984 H         1 <0>         0.1263
     24 H5         -0.5335    1.7344    0.8767 H         1 <0>         0.1231
     25 H6          1.4079   -0.5219   -1.2049 H         1 <0>         0.1218
     26 H7          0.2598   -1.8756   -1.0730 H         1 <0>         0.1245
     27 H8         -0.1731   -0.4304   -2.0176 H         1 <0>         0.1258
     28 H9          0.4635   -1.7566    1.2716 H         1 <0>         0.1399
     29 H10         1.5155   -0.3214    1.2305 H         1 <0>         0.1291
     30 H11        -0.1840    0.9608    2.5019 H         1 <0>         0.0605
     31 H12        -1.2359   -0.4745    2.5431 H         1 <0>         0.0978
     32 H13         2.4077   -0.2921    2.8675 H         1 <0>         0.0820
     33 H14         1.7979    1.0335    3.8876 H         1 <0>         0.0576
     34 H15         2.6830   -1.7202    4.8643 H         1 <0>         0.0544
     35 H16         3.5893   -0.2002    5.0589 H         1 <0>         0.0928
     36 H17         0.5466   -1.9942    6.0277 H         1 <0>         0.0560
     37 H18        -0.0631   -0.6687    7.0478 H         1 <0>         0.0942
     38 H19        -0.3385    0.7595    5.0510 H         1 <0>         0.0562
     39 H20        -1.2447   -0.7605    4.8564 H         1 <0>         0.0897
     40 H21         4.6940   -0.8650    7.8187 H         1 <0>         0.1483
     41 H22         4.2231    0.2217    6.4682 H         1 <0>         0.1503
     42 H23         2.8497   -0.2601   10.4575 H         1 <0>         0.1512
     43 H24         1.6784    1.0564   10.1092 H         1 <0>         0.1471
     44 H25         0.7998   -1.6992   10.0314 H         1 <0>         0.3928
     45 H26        -1.2039   -0.4298    0.1328 H         1 <0>         0.4277
@<TRIPOS>BOND
     1    1    2 1
     2    1   22 1
     3    1   23 1
     4    1   24 1
     5    2    3 1
     6    2    4 1
     7    2   45 1
     8    3   25 1
     9    3   26 1
    10    3   27 1
    11    4    5 1
    12    4   28 1
    13    4   29 1
    14    5    6 1
    15    5   30 1
    16    5   31 1
    17    6   11 1
    18    6    7 1
    19    7    8 1
    20    7   32 1
    21    7   33 1
    22    8    9 1
    23    8   34 1
    24    8   35 1
    25    9   10 1
    26    9   12 1
    27   10   11 1
    28   10   36 1
    29   10   37 1
    30   11   38 1
    31   11   39 1
    32   12   13 1
    33   12   19 1
    34   12   14 1
    35   14   15 1
    36   14   40 1
    37   14   41 1
    38   15   16 2
    39   15   17 2
    40   15   18 1
    41   18   19 1
    42   18   42 1
    43   18   43 1
    44   19   20 1
    45   19   21 1
    46   21   44 1
@<TRIPOS>MOLECULE
ZINC65423614
   43    45     0     0     0
SMALL
USER_CHARGES

@<TRIPOS>ATOM
      1 C1         -0.0187    1.5258    0.0104 C.3       1 <0>        -0.1625
      2 C2          0.0021   -0.0041    0.0020 C.3       1 <0>        -0.0766
      3 C3          0.7074   -0.4901   -1.2379 C.cat     1 <0>         0.3301
      4 N1          1.9968   -0.6436   -1.3686 N.pl3     1 <0>        -0.4739
      5 C4          2.2658   -1.0918   -2.6038 C.2       1 <0>         0.0074
      6 C5          1.0989   -1.2209   -3.2636 C.2       1 <0>         0.0312
      7 N2          0.1096   -0.8444   -2.3957 N.pl3     1 <0>        -0.3980
      8 C6         -1.3289   -0.8263   -2.6724 C.3       1 <0>         0.0736
      9 C7         -1.7380    0.5548   -3.1152 C.2       1 <0>         0.4980
     10 O1         -0.9096    1.4372   -3.1921 O.2       1 <0>        -0.5132
     11 N3         -3.0246    0.8095   -3.4257 N.am      1 <0>        -0.5996
     12 C8         -4.0444   -0.2458   -3.3327 C.3       1 <0>         0.1003
     13 C9         -4.8275   -0.2905   -4.6501 C.3       1 <0>         0.0389
     14 N4         -5.3381    1.0528   -4.9508 N.3       1 <0>        -0.5327
     15 C10        -6.2427    1.0419   -6.1079 C.3       1 <0>         0.0366
     16 C11        -6.9756    2.3834   -6.1734 C.3       1 <0>         0.1113
     17 N5         -6.0223    3.4844   -6.0722 N.am      1 <0>        -0.7148
     18 C12        -4.7808    3.3322   -5.5970 C.2       1 <0>         0.5300
     19 O2         -4.0660    4.3082   -5.5111 O.2       1 <0>        -0.5375
     20 C13        -4.2384    2.0012   -5.1662 C.3       1 <0>         0.0574
     21 H1         -3.5758    1.6146   -5.9406 H         1 <0>         0.0813
     22 C14        -3.4432    2.1519   -3.8600 C.3       1 <0>         0.1376
     23 H2          1.0039    1.9031    0.0027 H         1 <0>         0.0688
     24 H3         -0.5459    1.8868   -0.8726 H         1 <0>         0.0768
     25 H4         -0.5289    1.8773    0.9072 H         1 <0>         0.0920
     26 H5          0.5293   -0.3651    0.8851 H         1 <0>         0.1234
     27 H6         -1.0205   -0.3814    0.0098 H         1 <0>         0.1142
     28 H7          3.2464   -1.3108   -2.9999 H         1 <0>         0.2264
     29 H8          0.9685   -1.5602   -4.2806 H         1 <0>         0.2230
     30 H9         -1.5562   -1.5431   -3.4615 H         1 <0>         0.1542
     31 H10        -1.8761   -1.0951   -1.7688 H         1 <0>         0.1479
     32 H11        -3.5607   -1.2076   -3.1620 H         1 <0>         0.0907
     33 H12        -4.7248   -0.0251   -2.5103 H         1 <0>         0.0972
     34 H13        -4.1692   -0.6188   -5.4545 H         1 <0>         0.0478
     35 H14        -5.6623   -0.9848   -4.5545 H         1 <0>         0.1062
     36 H15        -5.6659    0.8958   -7.0212 H         1 <0>         0.0508
     37 H16        -6.9670    0.2348   -5.9978 H         1 <0>         0.1060
     38 H17        -7.5121    2.4561   -7.1195 H         1 <0>         0.0894
     39 H18        -7.6883    2.4461   -5.3510 H         1 <0>         0.0813
     40 H19        -6.3016    4.3666   -6.3631 H         1 <0>         0.4087
     41 H20        -4.0713    2.6069   -3.0941 H         1 <0>         0.0918
     42 H21        -2.5644    2.7732   -4.0326 H         1 <0>         0.1148
     43 H22         2.6564   -0.4623   -0.6810 H         1 <0>         0.4636
@<TRIPOS>BOND
     1    1    2 1
     2    1   23 1
     3    1   24 1
     4    1   25 1
     5    2    3 1
     6    2   26 1
     7    2   27 1
     8    3    7 1
     9    3    4 2
    10    4    5 1
    11    4   43 1
    12    5    6 2
    13    5   28 1
    14    6    7 1
    15    6   29 1
    16    7    8 1
    17    8    9 1
    18    8   30 1
    19    8   31 1
    20    9   10 2
    21    9   11 am
    22   11   22 1
    23   11   12 1
    24   12   13 1
    25   12   32 1
    26   12   33 1
    27   13   14 1
    28   13   34 1
    29   13   35 1
    30   14   20 1
    31   14   15 1
    32   15   16 1
    33   15   36 1
    34   15   37 1
    35   16   17 1
    36   16   38 1
    37   16   39 1
    38   17   18 am
    39   17   40 1
    40   18   19 2
    41   18   20 1
    42   20   21 1
    43   20   22 1
    44   22   41 1
    45   22   42 1
@<TRIPOS>MOLECULE
ZINC03719666
   46    48     0     0     0
SMALL
USER_CHARGES
(1S)-1-(2,4,5-trimethoxyphenyl)-1,2,3,4-tetrahydroisoquinoline-6,7-diol
@<TRIPOS>ATOM
      1 C1          4.6787   -3.5928   -4.1094 C.3       1 <0>         0.0213
      2 O1          4.3179   -2.3976   -4.8046 O.3       1 <0>        -0.2945
      3 C2          3.0679   -1.9075   -4.5832 C.ar      1 <0>         0.0908
      4 C3          2.2118   -2.5606   -3.7116 C.ar      1 <0>        -0.1504
      5 C4          0.9402   -2.0660   -3.4898 C.ar      1 <0>        -0.1760
      6 C5          0.5224   -0.9093   -4.1310 C.ar      1 <0>         0.1667
      7 C6          1.3781   -0.2497   -5.0002 C.ar      1 <0>        -0.2534
      8 C7          2.6510   -0.7470   -5.2276 C.ar      1 <0>         0.1723
      9 O2          3.4917   -0.1020   -6.0799 O.3       1 <0>        -0.2911
     10 C8          2.9966    1.0830   -6.7066 C.3       1 <0>         0.0188
     11 O3         -0.7270   -0.4216   -3.9069 O.3       1 <0>        -0.3107
     12 C9         -1.0910    0.7735   -4.6006 C.3       1 <0>         0.0192
     13 C10         0.0089   -2.7811   -2.5452 C.3       1 <0>         0.1579
     14 H1         -1.0013   -2.7628   -2.9543 H         1 <0>         0.1569
     15 C11         0.0181   -2.0798   -1.2119 C.ar      1 <0>        -0.1141
     16 C12        -0.0057   -0.6922   -1.1977 C.ar      1 <0>        -0.1006
     17 C13         0.0021   -0.0041    0.0020 C.ar      1 <0>         0.0935
     18 C14         0.0230   -0.7095    1.2019 C.ar      1 <0>         0.1129
     19 C15         0.0430   -2.0925    1.1829 C.ar      1 <0>        -0.1236
     20 C16         0.0424   -2.7778   -0.0234 C.ar      1 <0>        -0.0825
     21 C17         0.0751   -4.2846    0.0083 C.3       1 <0>        -0.1062
     22 C18        -0.3432   -4.8448   -1.3512 C.3       1 <0>         0.0004
     23 O4          0.0235   -0.0423    2.3869 O.3       1 <0>        -0.4878
     24 O5         -0.0164    1.3557    0.0095 O.3       1 <0>        -0.4860
     25 H2          5.6977   -3.8742   -4.3751 H         1 <0>         0.1120
     26 H3          4.6178   -3.4206   -3.0348 H         1 <0>         0.0561
     27 H4          3.9958   -4.3954   -4.3880 H         1 <0>         0.0544
     28 H5          2.5368   -3.4589   -3.2079 H         1 <0>         0.1332
     29 H6          1.0527    0.6511   -5.4991 H         1 <0>         0.1561
     30 H7          2.1122    0.8401   -7.2955 H         1 <0>         0.0622
     31 H8          2.7349    1.8155   -5.9431 H         1 <0>         0.0619
     32 H9          3.7652    1.4971   -7.3592 H         1 <0>         0.1141
     33 H10        -2.1099    1.0531   -4.3327 H         1 <0>         0.1136
     34 H11        -0.4088    1.5769   -4.3229 H         1 <0>         0.0642
     35 H12        -1.0320    0.6020   -5.6754 H         1 <0>         0.0650
     36 H13        -0.0263   -0.1463   -2.1293 H         1 <0>         0.1554
     37 H14         0.0587   -2.6420    2.1125 H         1 <0>         0.1453
     38 H15         1.0856   -4.6196    0.2423 H         1 <0>         0.1054
     39 H16        -0.6107   -4.6453    0.7749 H         1 <0>         0.1263
     40 H17        -1.4041   -4.6554   -1.5145 H         1 <0>         0.1370
     41 H18        -0.1538   -5.9178   -1.3825 H         1 <0>         0.1442
     42 H19        -0.8596    0.1375    2.7373 H         1 <0>         0.4048
     43 H20         0.8616    1.7610    0.0033 H         1 <0>         0.4010
     44 N1          0.4494   -4.1752   -2.3991 N.4       1 <0>        -0.5150
     45 H21         1.4424   -4.1929   -2.1384 H         1 <0>         0.4283
     46 H22         0.3207   -4.6681   -3.2905 H         1 <0>         0.4408
@<TRIPOS>BOND
     1    1    2 1
     2    1   25 1
     3    1   26 1
     4    1   27 1
     5    2    3 1
     6    3    8 ar
     7    3    4 ar
     8    4    5 ar
     9    4   28 1
    10    5    6 ar
    11    5   13 1
    12    6    7 ar
    13    6   11 1
    14    7    8 ar
    15    7   29 1
    16    8    9 1
    17    9   10 1
    18   10   30 1
    19   10   31 1
    20   10   32 1
    21   11   12 1
    22   12   33 1
    23   12   34 1
    24   12   35 1
    25   13   14 1
    26   13   15 1
    27   13   44 1
    28   15   20 ar
    29   15   16 ar
    30   16   17 ar
    31   16   36 1
    32   17   18 ar
    33   17   24 1
    34   18   19 ar
    35   18   23 1
    36   19   20 ar
    37   19   37 1
    38   20   21 1
    39   21   22 1
    40   21   38 1
    41   21   39 1
    42   22   40 1
    43   22   41 1
    44   22   44 1
    45   23   42 1
    46   24   43 1
    47   44   45 1
    48   44   46 1
@<TRIPOS>MOLECULE
ZINC37033818
   31    33     0     0     0
SMALL
USER_CHARGES

@<TRIPOS>ATOM
      1 C1          1.7014    1.3648    1.1007 C.ar      1 <0>        -0.0920
      2 C2          1.2373    2.1131    0.0707 C.ar      1 <0>         0.0496
      3 C3          0.7026    1.4843   -1.0880 C.ar      1 <0>         0.0671
      4 C4          0.6692    0.0276   -1.1340 C.ar      1 <0>         0.0871
      5 C5          1.1733   -0.6974   -0.0138 C.ar      1 <0>         0.1684
      6 C6          1.6717   -0.0285    1.0617 C.ar      1 <0>         0.0260
      7 Cl1         2.2824   -0.9294    2.4142 Cl        1 <0>        -0.0218
      8 N1          1.1578   -2.0954   -0.0215 N.am      1 <0>        -0.6440
      9 C7          0.0571   -2.7593    0.3836 C.2       1 <0>         0.5176
     10 O1         -0.9504   -2.1467    0.6681 O.2       1 <0>        -0.4988
     11 C8          0.0779   -4.2629    0.4830 C.3       1 <0>         0.0093
     12 H1          1.0285   -4.5935    0.9016 H         1 <0>         0.1741
     13 C9         -0.1247   -4.8844   -0.9149 C.3       1 <0>        -0.1302
     14 C10        -1.0238   -6.1146   -0.6235 C.3       1 <0>         0.0970
     15 H2         -0.4279   -6.9626   -0.2860 H         1 <0>         0.1051
     16 C11        -1.9249   -5.5803    0.5177 C.3       1 <0>        -0.0444
     17 N2         -1.0331   -4.7247    1.3353 N.4       1 <0>        -0.4974
     18 O2         -1.8017   -6.4632   -1.7704 O.3       1 <0>        -0.5328
     19 N3          0.1494   -0.4499   -2.2646 N.2       1 <0>        -0.5040
     20 S1         -0.2400    0.8407   -3.1427 S.3       1 <0>         0.7162
     21 N4          0.2065    2.0551   -2.1866 N.2       1 <0>        -0.4736
     22 Cl2         1.2949    3.8456    0.1657 Cl        1 <0>        -0.0003
     23 H3          2.1080    1.8594    1.9705 H         1 <0>         0.1722
     24 H4          1.9391   -2.5875   -0.3185 H         1 <0>         0.4253
     25 H5         -0.6327   -4.1841   -1.5780 H         1 <0>         0.1177
     26 H6          0.8293   -5.1963   -1.3399 H         1 <0>         0.1333
     27 H7         -2.7466   -4.9924    0.1087 H         1 <0>         0.1448
     28 H8         -2.3092   -6.4063    1.1161 H         1 <0>         0.1480
     29 H9         -0.6675   -5.2557    2.1115 H         1 <0>         0.4389
     30 H10        -2.3797   -7.2268   -1.6363 H         1 <0>         0.4022
     31 H11        -1.5483   -3.9295    1.6820 H         1 <0>         0.4394
@<TRIPOS>BOND
     1    1    6 ar
     2    1    2 ar
     3    1   23 1
     4    2    3 ar
     5    2   22 1
     6    3   21 2
     7    3    4 ar
     8    4    5 ar
     9    4   19 2
    10    5    6 ar
    11    5    8 1
    12    6    7 1
    13    8    9 am
    14    8   24 1
    15    9   10 2
    16    9   11 1
    17   11   12 1
    18   11   17 1
    19   11   13 1
    20   13   14 1
    21   13   25 1
    22   13   26 1
    23   14   15 1
    24   14   16 1
    25   14   18 1
    26   16   17 1
    27   16   27 1
    28   16   28 1
    29   17   29 1
    30   17   31 1
    31   18   30 1
    32   19   20 1
    33   20   21 1
@<TRIPOS>MOLECULE
ZINC45606084
   52    55     0     0     0
SMALL
USER_CHARGES

@<TRIPOS>ATOM
      1 C1         -2.3256    0.4681    1.8503 C.3       1 <0>        -0.1255
      2 C2         -1.1153    1.4026    1.8839 C.3       1 <0>        -0.1220
      3 C3         -0.1201    0.9204    2.9425 C.3       1 <0>        -0.1108
      4 C4          0.3337   -0.4980    2.5969 C.3       1 <0>        -0.1044
      5 H1          0.7999   -0.5000    1.6116 H         1 <0>         0.0935
      6 C5          1.3371   -0.9991    3.6356 C.3       1 <0>        -0.0035
      7 N1          1.7660   -2.3587    3.2826 N.4       1 <0>        -0.3741
      8 C6          0.6202   -3.2744    3.3205 C.3       1 <0>        -0.0174
      9 C7         -0.4174   -2.8523    2.2767 C.3       1 <0>        -0.1366
     10 C8         -0.8829   -1.4284    2.5871 C.3       1 <0>        -0.0968
     11 H2         -1.3651   -1.4068    3.5644 H         1 <0>         0.0879
     12 C9         -1.8696   -0.9553    1.5193 C.3       1 <0>        -0.1141
     13 C10         2.7840   -2.8124    4.2396 C.3       1 <0>        -0.0370
     14 C11         3.3144   -4.1559    3.8097 C.2       1 <0>         0.4324
     15 O1          2.8858   -4.6843    2.8036 O.2       1 <0>        -0.5045
     16 C12         4.3089   -4.8000    4.5762 C.2       1 <0>        -0.4585
     17 C13         4.7230   -6.1090    4.2745 C.2       1 <0>         0.5862
     18 N2          5.6893   -6.6903    5.0450 N.am      1 <0>        -0.5108
     19 C14         6.2449   -6.0371    6.0775 C.2       1 <0>         0.7098
     20 O2          7.1012   -6.5984    6.7326 O.2       1 <0>        -0.4952
     21 N3          5.8901   -4.7862    6.4131 N.am      1 <0>        -0.6564
     22 H3          6.3189   -4.3531    7.1676 H         1 <0>         0.4422
     23 C15         4.9489   -4.1221    5.7109 C.2       1 <0>         0.5873
     24 O3          4.6333   -2.9864    6.0145 O.2       1 <0>        -0.5170
     25 C16         6.1277   -8.0541    4.7386 C.3       1 <0>         0.0190
     26 C17         7.6341   -8.3158    4.6811 C.3       1 <0>        -0.1309
     27 C18         6.8123   -8.2902    3.3908 C.3       1 <0>        -0.1723
     28 N4          4.1698   -6.7861    3.2320 N.pl3     1 <0>        -0.7891
     29 H4         -2.8159    0.4746    2.8238 H         1 <0>         0.0661
     30 H5         -3.0271    0.8103    1.0895 H         1 <0>         0.0712
     31 H6         -0.6323    1.4056    0.9067 H         1 <0>         0.0665
     32 H7         -1.4438    2.4128    2.1284 H         1 <0>         0.0736
     33 H8          0.7437    1.5850    2.9597 H         1 <0>         0.0749
     34 H9         -0.6005    0.9208    3.9209 H         1 <0>         0.0739
     35 H10         2.2033   -0.3376    3.6531 H         1 <0>         0.1315
     36 H11         0.8675   -1.0098    4.6192 H         1 <0>         0.1296
     37 H12         0.9590   -4.2878    3.1052 H         1 <0>         0.1433
     38 H13         0.1680   -3.2479    4.3120 H         1 <0>         0.1224
     39 H14         0.0311   -2.8827    1.2837 H         1 <0>         0.0879
     40 H15        -1.2695   -3.5309    2.3144 H         1 <0>         0.1100
     41 H16        -2.7335   -1.6197    1.5019 H         1 <0>         0.0731
     42 H17        -1.3827   -0.9642    0.5441 H         1 <0>         0.0684
     43 H18         3.6013   -2.0918    4.2695 H         1 <0>         0.1679
     44 H19         2.3385   -2.8978    5.2307 H         1 <0>         0.1606
     45 H20         5.4927   -8.8505    5.1269 H         1 <0>         0.1488
     46 H21         8.2989   -7.4732    4.8712 H         1 <0>         0.1117
     47 H22         7.9904   -9.2844    5.0318 H         1 <0>         0.1232
     48 H23         6.6279   -9.2419    2.8926 H         1 <0>         0.1247
     49 H24         6.9364   -7.4307    2.7321 H         1 <0>         0.1051
     50 H25         3.8125   -6.2996    2.4727 H         1 <0>         0.4409
     51 H26         4.1328   -7.7552    3.2481 H         1 <0>         0.4194
     52 H27         2.1605   -2.3546    2.3539 H         1 <0>         0.4239
@<TRIPOS>BOND
     1    1   12 1
     2    1    2 1
     3    1   29 1
     4    1   30 1
     5    2    3 1
     6    2   31 1
     7    2   32 1
     8    3    4 1
     9    3   33 1
    10    3   34 1
    11    4    5 1
    12    4   10 1
    13    4    6 1
    14    6    7 1
    15    6   35 1
    16    6   36 1
    17    7    8 1
    18    7   13 1
    19    7   52 1
    20    8    9 1
    21    8   37 1
    22    8   38 1
    23    9   10 1
    24    9   39 1
    25    9   40 1
    26   10   11 1
    27   10   12 1
    28   12   41 1
    29   12   42 1
    30   13   14 1
    31   13   43 1
    32   13   44 1
    33   14   15 2
    34   14   16 1
    35   16   23 1
    36   16   17 2
    37   17   18 1
    38   17   28 1
    39   18   19 am
    40   18   25 1
    41   19   20 2
    42   19   21 am
    43   21   22 1
    44   21   23 am
    45   23   24 2
    46   25   27 1
    47   25   26 1
    48   25   45 1
    49   26   27 1
    50   26   46 1
    51   26   47 1
    52   27   48 1
    53   27   49 1
    54   28   50 1
    55   28   51 1
@<TRIPOS>MOLECULE
ZINC63174732
   38    39     0     0     0
SMALL
USER_CHARGES

@<TRIPOS>ATOM
      1 C1         -0.0941    1.5007    0.0167 C.3       1 <0>        -0.1491
      2 C2         -0.0342   -0.0051    0.0051 C.ar      1 <0>         0.0503
      3 C3         -0.0986   -0.6902   -1.1938 C.ar      1 <0>        -0.0515
      4 C4         -0.0441   -2.0713   -1.2046 C.ar      1 <0>         0.0504
      5 C5          0.0748   -2.7683   -0.0164 C.ar      1 <0>        -0.6833
      6 C6          0.1397   -2.0845    1.1826 C.ar      1 <0>         0.0304
      7 C7          0.0910   -0.7016    1.1936 C.ar      1 <0>        -0.0615
      8 Cl1         0.1797    0.1585    2.6990 Cl        1 <0>        -0.0077
      9 S1          0.1430   -4.5290   -0.0311 S.o2      1 <0>         2.6986
     10 O1         -0.2942   -4.9630    1.2494 O.2       1 <0>        -0.9230
     11 O2         -0.4859   -4.9497   -1.2339 O.2       1 <0>        -0.9216
     12 N1          1.7381   -4.9561   -0.1565 N.pl3     1 <0>        -1.1333
     13 C8          2.6702   -4.6332    0.9265 C.3       1 <0>         0.1216
     14 H1          2.1277   -4.5241    1.8656 H         1 <0>         0.1379
     15 C9          3.4287   -3.3302    0.6000 C.3       1 <0>        -0.1550
     16 C10         4.8589   -3.5775    1.1407 C.3       1 <0>        -0.1212
     17 C11         5.0987   -5.0700    0.8028 C.3       1 <0>        -0.1448
     18 C12         3.7313   -5.7400    1.0563 C.3       1 <0>         0.0234
     19 H2          3.7043   -6.1675    2.0586 H         1 <0>         0.1626
     20 N2          3.4906   -6.7877    0.0552 N.4       1 <0>        -0.6353
     21 N3         -0.2264    0.0551   -2.4660 N.pl3     1 <0>         0.0232
     22 O3         -0.9062   -0.3895   -3.3615 O.2       1 <0>        -0.1314
     23 O4          0.3491    1.1086   -2.6099 O.3       1 <0>        -0.1248
     24 H3          0.9019    1.9054   -0.1629 H         1 <0>         0.1159
     25 H4         -0.7719    1.8434   -0.7651 H         1 <0>         0.0917
     26 H5         -0.4558    1.8425    0.9865 H         1 <0>         0.0973
     27 H6         -0.0948   -2.6062   -2.1415 H         1 <0>         0.1722
     28 H7          0.2323   -2.6291    2.1107 H         1 <0>         0.1698
     29 H8          2.0552   -5.4202   -0.9471 H         1 <0>         0.4119
     30 H9          3.4517   -3.1618   -0.4767 H         1 <0>         0.0915
     31 H10         2.9693   -2.4833    1.1098 H         1 <0>         0.0930
     32 H11         5.5814   -2.9440    0.6260 H         1 <0>         0.0963
     33 H12         4.8984   -3.4141    2.2176 H         1 <0>         0.0912
     34 H13         5.3914   -5.1825   -0.2411 H         1 <0>         0.0934
     35 H14         5.8580   -5.4928    1.4606 H         1 <0>         0.1084
     36 H15         3.5405   -6.3872   -0.8696 H         1 <0>         0.4305
     37 H16         4.1905   -7.5086    0.1478 H         1 <0>         0.4436
     38 H17         2.5753   -7.1871    0.1997 H         1 <0>         0.4386
@<TRIPOS>BOND
     1    1    2 1
     2    1   24 1
     3    1   25 1
     4    1   26 1
     5    2    7 ar
     6    2    3 ar
     7    3    4 ar
     8    3   21 1
     9    4    5 ar
    10    4   27 1
    11    5    6 ar
    12    5    9 1
    13    6    7 ar
    14    6   28 1
    15    7    8 1
    16    9   10 2
    17    9   11 2
    18    9   12 1
    19   12   13 1
    20   12   29 1
    21   13   14 1
    22   13   18 1
    23   13   15 1
    24   15   16 1
    25   15   30 1
    26   15   31 1
    27   16   17 1
    28   16   32 1
    29   16   33 1
    30   17   18 1
    31   17   34 1
    32   17   35 1
    33   18   19 1
    34   18   20 1
    35   20   36 1
    36   20   37 1
    37   20   38 1
    38   21   22 2
    39   21   23 1
@<TRIPOS>MOLECULE
ZINC65968265
   52    55     0     0     0
SMALL
USER_CHARGES

@<TRIPOS>ATOM
      1 C1         -0.0081    1.4991   -0.2504 C.3       1 <0>        -0.1776
      2 C2         -0.0010   -0.0308   -0.2331 C.3       1 <0>         0.0870
      3 N1         -1.3741   -0.5241   -0.1006 N.am      1 <0>        -0.5367
      4 C3         -1.8938   -0.7302    1.1455 C.2       1 <0>         0.5837
      5 C4         -3.2123   -1.2031    1.2625 C.2       1 <0>        -0.4659
      6 C5         -3.9646   -1.4517    0.0259 C.2       1 <0>         0.5896
      7 O1         -5.1101   -1.8611    0.0673 O.2       1 <0>        -0.5168
      8 N2         -3.3598   -1.2162   -1.1567 N.am      1 <0>        -0.6566
      9 H1         -3.8439   -1.3756   -1.9820 H         1 <0>         0.4425
     10 C6         -2.0980   -0.7591   -1.2061 C.2       1 <0>         0.7133
     11 O2         -1.5913   -0.5555   -2.2919 O.2       1 <0>        -0.5005
     12 C7         -3.7943   -1.4323    2.5275 C.2       1 <0>         0.4335
     13 O3         -3.1948   -1.1214    3.5371 O.2       1 <0>        -0.5110
     14 C8         -5.1596   -2.0627    2.6259 C.3       1 <0>        -0.0422
     15 N3         -5.5382   -2.1927    4.0393 N.4       1 <0>        -0.3480
     16 C9         -4.5414   -2.9858    4.6950 C.3       1 <0>        -0.0195
     17 C10        -4.9761   -3.6507    5.9640 C.3       1 <0>        -0.1037
     18 C11        -5.8226   -2.7848    6.8720 C.3       1 <0>        -0.1144
     19 C12        -7.3064   -2.8208    6.5507 C.3       1 <0>        -0.0975
     20 C13        -7.8024   -4.2623    6.4136 C.3       1 <0>        -0.1137
     21 C14        -6.9901   -4.9395    5.3088 C.3       1 <0>        -0.0918
     22 C15        -5.5350   -5.0429    5.7768 C.3       1 <0>        -0.1152
     23 C16        -7.0697   -4.1724    4.0061 C.3       1 <0>        -0.1155
     24 C17        -6.8890   -2.6862    4.0956 C.3       1 <0>         0.0249
     25 C18        -7.6389   -2.0640    5.2695 C.3       1 <0>        -0.1291
     26 N4         -1.1472   -0.4821    2.2556 N.pl3     1 <0>        -0.7801
     27 H2          1.0135    1.8661   -0.3490 H         1 <0>         0.0937
     28 H3         -0.6033    1.8502   -1.0934 H         1 <0>         0.0750
     29 H4         -0.4397    1.8709    0.6789 H         1 <0>         0.0622
     30 H5          0.4305   -0.4027   -1.1624 H         1 <0>         0.1245
     31 H6          0.5941   -0.3819    0.6099 H         1 <0>         0.0984
     32 H7         -5.8873   -1.4355    2.1110 H         1 <0>         0.1686
     33 H8         -5.1384   -3.0494    2.1632 H         1 <0>         0.1616
     34 H9         -4.2087   -3.7580    4.0014 H         1 <0>         0.1150
     35 H10        -3.6887   -2.3451    4.9197 H         1 <0>         0.1514
     36 H11        -4.0537   -3.8003    6.5252 H         1 <0>         0.0943
     37 H12        -5.6816   -3.1179    7.9002 H         1 <0>         0.0865
     38 H13        -5.4749   -1.7548    6.7930 H         1 <0>         0.0667
     39 H14        -7.8485   -2.3568    7.3747 H         1 <0>         0.0882
     40 H15        -7.6579   -4.7926    7.3549 H         1 <0>         0.0777
     41 H16        -8.8595   -4.2643    6.1476 H         1 <0>         0.0748
     42 H17        -7.3820   -5.9433    5.1447 H         1 <0>         0.0893
     43 H18        -4.9479   -5.5736    5.0272 H         1 <0>         0.0725
     44 H19        -5.4938   -5.5826    6.7229 H         1 <0>         0.0852
     45 H20        -6.3065   -4.5660    3.3348 H         1 <0>         0.0779
     46 H21        -8.0437   -4.3682    3.5575 H         1 <0>         0.1041
     47 H22        -7.3828   -2.2791    3.2132 H         1 <0>         0.1218
     48 H23        -8.7116   -2.1181    5.0843 H         1 <0>         0.1114
     49 H24        -7.3423   -1.0207    5.3773 H         1 <0>         0.0835
     50 H25        -0.2143   -0.2320    2.1667 H         1 <0>         0.4154
     51 H26        -1.5480   -0.5554    3.1359 H         1 <0>         0.4417
     52 H27        -5.5245   -1.2713    4.4503 H         1 <0>         0.4203
@<TRIPOS>BOND
     1    1    2 1
     2    1   27 1
     3    1   28 1
     4    1   29 1
     5    2    3 1
     6    2   30 1
     7    2   31 1
     8    3   10 am
     9    3    4 1
    10    4    5 2
    11    4   26 1
    12    5    6 1
    13    5   12 1
    14    6    7 2
    15    6    8 am
    16    8    9 1
    17    8   10 am
    18   10   11 2
    19   12   13 2
    20   12   14 1
    21   14   15 1
    22   14   32 1
    23   14   33 1
    24   15   24 1
    25   15   16 1
    26   15   52 1
    27   16   17 1
    28   16   34 1
    29   16   35 1
    30   17   22 1
    31   17   18 1
    32   17   36 1
    33   18   19 1
    34   18   37 1
    35   18   38 1
    36   19   25 1
    37   19   20 1
    38   19   39 1
    39   20   21 1
    40   20   40 1
    41   20   41 1
    42   21   22 1
    43   21   23 1
    44   21   42 1
    45   22   43 1
    46   22   44 1
    47   23   24 1
    48   23   45 1
    49   23   46 1
    50   24   25 1
    51   24   47 1
    52   25   48 1
    53   25   49 1
    54   26   50 1
    55   26   51 1
@<TRIPOS>MOLECULE
ZINC09305966
   46    48     0     0     0
SMALL
USER_CHARGES
8-[(1,1-dioxothiolan-3-yl)aminomethyl]-7-hydroxy-4-propyl-chromen-2-one
@<TRIPOS>ATOM
      1 C1         -4.6977    0.9521    9.4351 C.3       1 <0>        -0.1571
      2 C2         -4.0308    0.4479    8.1537 C.3       1 <0>        -0.1198
      3 C3         -2.8266    1.3320    7.8236 C.3       1 <0>        -0.0994
      4 C4         -2.1697    0.8353    6.5615 C.2       1 <0>         0.0342
      5 C5         -1.1131   -0.0169    6.6136 C.2       1 <0>        -0.2403
      6 C6         -0.5160   -0.4678    5.4185 C.2       1 <0>         0.5128
      7 O1          0.4306   -1.2317    5.4796 O.2       1 <0>        -0.4375
      8 O2         -0.9637   -0.0763    4.2152 O.3       1 <0>        -0.2862
      9 C7         -2.0135    0.7642    4.0930 C.ar      1 <0>         0.1865
     10 C8         -2.6533    1.2580    5.2454 C.ar      1 <0>        -0.1494
     11 C9         -3.7378    2.1338    5.1236 C.ar      1 <0>        -0.0031
     12 C10        -4.1687    2.5115    3.8847 C.ar      1 <0>        -0.1608
     13 C11        -3.5361    2.0302    2.7404 C.ar      1 <0>         0.1969
     14 C12        -2.4611    1.1619    2.8426 C.ar      1 <0>        -0.2153
     15 C13        -1.7848    0.6465    1.5984 C.3       1 <0>         0.0567
     16 C14        -0.0127    1.0858    0.0080 C.3       1 <0>         0.0328
     17 H1          0.0021   -0.0041    0.0020 H         1 <0>         0.1631
     18 C15        -0.7669    1.5930   -1.2323 C.3       1 <0>        -0.1555
     19 C16         0.1340    1.3553   -2.4778 C.3       1 <0>        -0.5689
     20 S1          1.7801    1.8283   -1.7983 S.o2      1 <0>         2.3898
     21 O3          2.0135    3.2039   -2.0677 O.2       1 <0>        -0.9035
     22 O4          2.7416    0.8630   -2.2021 O.2       1 <0>        -0.9023
     23 C17         1.4401    1.6195   -0.0030 C.3       1 <0>        -0.6373
     24 O5         -3.9767    2.4147    1.5154 O.3       1 <0>        -0.4927
     25 H2         -3.9823    0.9131   10.2565 H         1 <0>         0.0610
     26 H3         -5.0302    1.9802    9.2913 H         1 <0>         0.0586
     27 H4         -5.5557    0.3223    9.6702 H         1 <0>         0.0637
     28 H5         -4.7462    0.4869    7.3322 H         1 <0>         0.0655
     29 H6         -3.6983   -0.5802    8.2974 H         1 <0>         0.0710
     30 H7         -2.1112    1.2930    8.6451 H         1 <0>         0.0968
     31 H8         -3.1591    2.3600    7.6798 H         1 <0>         0.0905
     32 H9         -0.7313   -0.3480    7.5681 H         1 <0>         0.1732
     33 H10        -4.2325    2.5096    6.0070 H         1 <0>         0.1578
     34 H11        -5.0057    3.1875    3.7908 H         1 <0>         0.1571
     35 H12        -2.5105    0.5904    0.7871 H         1 <0>         0.1455
     36 H13        -1.3775   -0.3460    1.7909 H         1 <0>         0.1467
     37 H14        -1.7021    1.0444   -1.3444 H         1 <0>         0.1274
     38 H15        -0.9755    2.6576   -1.1266 H         1 <0>         0.1138
     39 H16        -0.1539    2.0069   -3.3027 H         1 <0>         0.1631
     40 H17         0.1191    0.3087   -2.7820 H         1 <0>         0.1554
     41 H18         1.5045    2.5756    0.5163 H         1 <0>         0.1598
     42 H19         2.1218    0.8937    0.4405 H         1 <0>         0.1715
     43 H20        -4.6584    1.8383    1.1439 H         1 <0>         0.4151
     44 N1         -0.6938    1.5664    1.2251 N.4       1 <0>        -0.5117
     45 H21        -0.0160    1.6179    1.9946 H         1 <0>         0.4386
     46 H22        -1.0833    2.5000    1.0490 H         1 <0>         0.4357
@<TRIPOS>BOND
     1    1    2 1
     2    1   25 1
     3    1   26 1
     4    1   27 1
     5    2    3 1
     6    2   28 1
     7    2   29 1
     8    3    4 1
     9    3   30 1
    10    3   31 1
    11    4   10 1
    12    4    5 2
    13    5    6 1
    14    5   32 1
    15    6    7 2
    16    6    8 1
    17    8    9 1
    18    9   14 ar
    19    9   10 ar
    20   10   11 ar
    21   11   12 ar
    22   11   33 1
    23   12   13 ar
    24   12   34 1
    25   13   14 ar
    26   13   24 1
    27   14   15 1
    28   15   35 1
    29   15   36 1
    30   15   44 1
    31   16   17 1
    32   16   23 1
    33   16   18 1
    34   16   44 1
    35   18   19 1
    36   18   37 1
    37   18   38 1
    38   19   20 1
    39   19   39 1
    40   19   40 1
    41   20   21 2
    42   20   22 2
    43   20   23 1
    44   23   41 1
    45   23   42 1
    46   24   43 1
    47   44   45 1
    48   44   46 1
@<TRIPOS>MOLECULE
ZINC39604553
   60    63     0     0     0
SMALL
USER_CHARGES

@<TRIPOS>ATOM
      1 C1          0.0566    1.5056    0.0064 C.3       1 <0>        -0.1259
      2 C2          0.0572   -0.0014   -0.0008 C.ar      1 <0>        -0.0488
      3 C3         -0.5481   -0.6854   -1.0400 C.ar      1 <0>        -0.1268
      4 C4         -0.5511   -2.0649   -1.0527 C.ar      1 <0>        -0.0532
      5 C5          0.0582   -2.7705   -0.0139 C.ar      1 <0>        -0.1505
      6 C6          0.6671   -2.0744    1.0314 C.ar      1 <0>        -0.0907
      7 C7          0.6679   -0.6948    1.0291 C.ar      1 <0>        -0.1282
      8 C8          0.0584   -4.2490   -0.0207 C.2       1 <0>         0.5908
      9 O1         -0.0470   -4.8519   -1.0709 O.2       1 <0>        -0.5277
     10 N1          0.1754   -4.9282    1.1375 N.am      1 <0>        -0.6205
     11 C9          0.1853   -4.3806    2.5145 C.3       1 <0>         0.1028
     12 C10        -0.6328   -5.3955    3.3440 C.3       1 <0>        -0.1147
     13 H1         -1.6714   -5.0736    3.4203 H         1 <0>         0.1130
     14 C11        -0.5371   -6.7133    2.5572 C.3       1 <0>        -0.0717
     15 C12         0.3167   -6.3924    1.3219 C.3       1 <0>         0.1082
     16 C13        -1.9263   -7.1733    2.1257 C.3       1 <0>        -0.1344
     17 C14        -1.8107   -8.5140    1.3949 C.3       1 <0>        -0.0107
     18 N2         -1.1990   -9.5076    2.2856 N.4       1 <0>        -0.5043
     19 C15         0.1713   -9.1028    2.6216 C.3       1 <0>        -0.0068
     20 C16         0.1397   -7.7869    3.4040 C.3       1 <0>        -0.1478
     21 C17        -0.0323   -5.5565    4.7168 C.2       1 <0>         0.5197
     22 O2          1.1444   -5.3229    4.8951 O.2       1 <0>        -0.5226
     23 N3         -0.8028   -5.9599    5.7464 N.am      1 <0>        -0.7212
     24 C18        -0.2190   -6.1164    7.0809 C.3       1 <0>         0.1080
     25 C19        -1.2999   -6.5806    8.0592 C.3       1 <0>         0.0677
     26 H2         -2.1472   -5.8957    8.0261 H         1 <0>         0.0902
     27 C20        -0.7236   -6.6321    9.4905 C.3       1 <0>        -0.1499
     28 C21        -1.3786   -7.9184   10.0634 C.3       1 <0>        -0.1576
     29 C22        -1.4388   -8.8074    8.7958 C.3       1 <0>         0.0497
     30 O3         -1.7304   -7.9030    7.7161 O.3       1 <0>        -0.3836
     31 H3          0.9412    1.8718   -0.5146 H         1 <0>         0.0797
     32 H4         -0.8386    1.8710   -0.4967 H         1 <0>         0.0732
     33 H5          0.0669    1.8641    1.0357 H         1 <0>         0.0724
     34 H6         -1.0195   -0.1382   -1.8430 H         1 <0>         0.1338
     35 H7         -1.0242   -2.5977   -1.8643 H         1 <0>         0.1346
     36 H8          1.1402   -2.6145    1.8382 H         1 <0>         0.1335
     37 H9          1.1425   -0.1549    1.8351 H         1 <0>         0.1319
     38 H10         1.2063   -4.3175    2.8910 H         1 <0>         0.1026
     39 H11        -0.2903   -3.4002    2.5370 H         1 <0>         0.1013
     40 H12        -0.0630   -6.9242    0.4495 H         1 <0>         0.0907
     41 H13         1.3590   -6.6541    1.5043 H         1 <0>         0.0847
     42 H14        -2.5599   -7.2914    3.0047 H         1 <0>         0.0970
     43 H15        -2.3641   -6.4314    1.4578 H         1 <0>         0.1181
     44 H16        -2.8036   -8.8535    1.0997 H         1 <0>         0.1398
     45 H17        -1.1903   -8.3914    0.5071 H         1 <0>         0.1341
     46 H18        -1.7440   -9.5796    3.1317 H         1 <0>         0.4285
     47 H19         0.6394   -9.8762    3.2306 H         1 <0>         0.1387
     48 H20         0.7448   -8.9664    1.7047 H         1 <0>         0.1327
     49 H21         1.1586   -7.4776    3.6373 H         1 <0>         0.1235
     50 H22        -0.4195   -7.9269    4.3290 H         1 <0>         0.1012
     51 H23        -1.7439   -6.1467    5.6037 H         1 <0>         0.4036
     52 H24         0.5796   -6.8573    7.0435 H         1 <0>         0.0759
     53 H25         0.1868   -5.1613    7.4142 H         1 <0>         0.0843
     54 H26         0.3621   -6.7263    9.4684 H         1 <0>         0.0838
     55 H27        -1.0264   -5.7549   10.0623 H         1 <0>         0.0906
     56 H28        -0.7504   -8.3707   10.8309 H         1 <0>         0.0895
     57 H29        -2.3779   -7.7130   10.4471 H         1 <0>         0.0829
     58 H30        -0.4791   -9.2972    8.6312 H         1 <0>         0.0621
     59 H31        -2.2317   -9.5493    8.8913 H         1 <0>         0.0889
     60 H32        -1.1797  -10.4046    1.8239 H         1 <0>         0.4339
@<TRIPOS>BOND
     1    1    2 1
     2    1   31 1
     3    1   32 1
     4    1   33 1
     5    2    7 ar
     6    2    3 ar
     7    3    4 ar
     8    3   34 1
     9    4    5 ar
    10    4   35 1
    11    5    6 ar
    12    5    8 1
    13    6    7 ar
    14    6   36 1
    15    7   37 1
    16    8    9 2
    17    8   10 am
    18   10   15 1
    19   10   11 1
    20   11   12 1
    21   11   38 1
    22   11   39 1
    23   12   13 1
    24   12   14 1
    25   12   21 1
    26   14   20 1
    27   14   15 1
    28   14   16 1
    29   15   40 1
    30   15   41 1
    31   16   17 1
    32   16   42 1
    33   16   43 1
    34   17   18 1
    35   17   44 1
    36   17   45 1
    37   18   19 1
    38   18   46 1
    39   18   60 1
    40   19   20 1
    41   19   47 1
    42   19   48 1
    43   20   49 1
    44   20   50 1
    45   21   22 2
    46   21   23 am
    47   23   24 1
    48   23   51 1
    49   24   25 1
    50   24   52 1
    51   24   53 1
    52   25   26 1
    53   25   30 1
    54   25   27 1
    55   27   28 1
    56   27   54 1
    57   27   55 1
    58   28   29 1
    59   28   56 1
    60   28   57 1
    61   29   30 1
    62   29   58 1
    63   29   59 1
@<TRIPOS>MOLECULE
ZINC50224271
   32    34     0     0     0
SMALL
USER_CHARGES

@<TRIPOS>ATOM
      1 C1         -0.0168    1.3840    0.0097 C.ar      1 <0>        -0.1056
      2 C2          1.1514    2.0933    0.0023 C.ar      1 <0>        -0.0631
      3 C3          2.3741    1.4155   -0.0130 C.ar      1 <0>        -0.1358
      4 C4          3.6441    2.1473   -0.0206 C.2       1 <0>        -0.0322
      5 C5          4.7968    1.4306   -0.0350 C.2       1 <0>        -0.1653
      6 C6          4.7460    0.0201   -0.0421 C.2       1 <0>         0.5050
      7 O1          5.7874   -0.6111   -0.0550 O.2       1 <0>        -0.4301
      8 O2          3.5794   -0.6433   -0.0347 O.3       1 <0>        -0.2609
      9 C7          2.3976    0.0093   -0.0207 C.ar      1 <0>         0.1586
     10 C8          1.1993   -0.6916   -0.0135 C.ar      1 <0>        -0.0967
     11 C9          0.0021   -0.0041    0.0020 C.ar      1 <0>        -0.0407
     12 Br1        -1.6280   -0.9626    0.0124 Br        1 <0>        -0.0067
     13 C10         3.6694    3.6541   -0.0132 C.3       1 <0>         0.1484
     14 N1          3.5450    4.1513   -1.3856 N.pl3     1 <0>        -0.2791
     15 C11         2.6171    5.0306   -1.8292 C.2       1 <0>         0.0016
     16 C12         2.8668    5.2093   -3.1474 C.2       1 <0>        -0.1085
     17 N2          3.9213    4.4407   -3.4419 N.2       1 <0>        -0.2363
     18 N3          4.3029    3.8311   -2.3754 N.2       1 <0>        -0.0414
     19 C13         2.1061    6.0988   -4.0967 C.3       1 <0>         0.1001
     20 N4          2.7789    7.4011   -4.1929 N.4       1 <0>        -0.6362
     21 H1         -0.9614    1.9072    0.0260 H         1 <0>         0.1492
     22 H2          1.1301    3.1731    0.0079 H         1 <0>         0.1373
     23 H3          5.7500    1.9382   -0.0413 H         1 <0>         0.1760
     24 H4          1.2035   -1.7716   -0.0196 H         1 <0>         0.1611
     25 H5          2.8392    4.0285    0.5856 H         1 <0>         0.1376
     26 H6          4.6106    3.9995    0.4145 H         1 <0>         0.1363
     27 H7          1.8345    5.4959   -1.2483 H         1 <0>         0.2063
     28 H8          2.0721    5.6338   -5.0820 H         1 <0>         0.1520
     29 H9          1.0907    6.2408   -3.7268 H         1 <0>         0.1517
     30 H10         2.8103    7.8316   -3.2809 H         1 <0>         0.4341
     31 H11         3.7188    7.2696   -4.5354 H         1 <0>         0.4401
     32 H12         2.2695    7.9967   -4.8285 H         1 <0>         0.4430
@<TRIPOS>BOND
     1    1   11 ar
     2    1    2 ar
     3    1   21 1
     4    2    3 ar
     5    2   22 1
     6    3    9 ar
     7    3    4 1
     8    4    5 2
     9    4   13 1
    10    5    6 1
    11    5   23 1
    12    6    7 2
    13    6    8 1
    14    8    9 1
    15    9   10 ar
    16   10   11 ar
    17   10   24 1
    18   11   12 1
    19   13   14 1
    20   13   25 1
    21   13   26 1
    22   14   18 1
    23   14   15 1
    24   15   16 2
    25   15   27 1
    26   16   17 1
    27   16   19 1
    28   17   18 2
    29   19   20 1
    30   19   28 1
    31   19   29 1
    32   20   30 1
    33   20   31 1
    34   20   32 1
@<TRIPOS>MOLECULE
ZINC39769063
   50    53     0     0     0
SMALL
USER_CHARGES

@<TRIPOS>ATOM
      1 C1          5.5215   -3.8993   -1.7211 C.ar      1 <0>        -0.1541
      2 C2          6.2028   -2.7036   -1.9712 C.ar      1 <0>         0.0427
      3 C3          5.5754   -1.5039   -1.9471 C.ar      1 <0>        -0.2051
      4 C4          4.1850   -1.4397   -1.6617 C.ar      1 <0>         0.3114
      5 N1          3.3590   -0.4192   -1.5795 N.pl3     1 <0>        -0.6069
      6 C5          2.0163   -0.9101   -1.2541 C.3       1 <0>         0.0656
      7 C6          2.1364   -2.4141   -1.1450 C.2       1 <0>         0.1249
      8 C7          3.4712   -2.7027   -1.3992 C.ar      1 <0>        -0.1817
      9 C8          4.1950   -3.9170   -1.4417 C.ar      1 <0>        -0.0212
     10 C9          1.1080   -3.3315   -0.8478 C.2       1 <0>        -0.1313
     11 C10        -0.1342   -2.8694   -0.7705 C.2       1 <0>        -0.0185
     12 C11        -1.3174   -3.7382   -0.4445 C.3       1 <0>         0.1042
     13 N2         -0.9097   -5.1491   -0.5018 N.am      1 <0>        -0.6205
     14 C12         0.3789   -5.5080    0.1145 C.3       1 <0>         0.1100
     15 C13         1.4861   -4.7690   -0.6449 C.3       1 <0>        -0.1060
     16 C14        -1.6846   -6.0782   -1.0957 C.2       1 <0>         0.5748
     17 O1         -1.3472   -7.2463   -1.0882 O.2       1 <0>        -0.5140
     18 C15        -2.9430   -5.6778   -1.7551 C.ar      1 <0>        -0.1803
     19 C16        -3.3160   -6.2641   -2.9674 C.ar      1 <0>        -0.0188
     20 C17        -4.4909   -5.8881   -3.5792 C.ar      1 <0>        -0.1475
     21 C18        -5.3053   -4.9265   -2.9927 C.ar      1 <0>         0.1614
     22 C19        -4.9378   -4.3409   -1.7869 C.ar      1 <0>        -0.2173
     23 C20        -3.7673   -4.7156   -1.1659 C.ar      1 <0>        -0.0577
     24 O2         -6.4621   -4.5580   -3.5992 O.3       1 <0>        -0.2821
     25 C21        -7.2513   -3.5644   -2.9420 C.3       1 <0>         0.0369
     26 C22        -8.4881   -3.2855   -3.7566 C.2       1 <0>         0.5173
     27 O3         -8.6753   -3.8791   -4.7975 O.2       1 <0>        -0.5130
     28 N3         -9.3862   -2.3764   -3.3284 N.am      1 <0>        -0.8483
     29 H1          6.0648   -4.8320   -1.7558 H         1 <0>         0.1542
     30 H2          7.2599   -2.7381   -2.1895 H         1 <0>         0.1587
     31 H3          6.1303   -0.5985   -2.1440 H         1 <0>         0.1577
     32 H4          1.6831   -0.4904   -0.3049 H         1 <0>         0.1689
     33 H5          1.3175   -0.6460   -2.0478 H         1 <0>         0.1671
     34 H6          3.6931   -4.8544   -1.2527 H         1 <0>         0.1585
     35 H7         -0.3031   -1.8179   -0.9501 H         1 <0>         0.1420
     36 H8         -1.6769   -3.5033    0.5574 H         1 <0>         0.1147
     37 H9         -2.1118   -3.5588   -1.1690 H         1 <0>         0.1329
     38 H10         0.3823   -5.2079    1.1624 H         1 <0>         0.0841
     39 H11         0.5368   -6.5838    0.0383 H         1 <0>         0.1125
     40 H12         1.6402   -5.2416   -1.6150 H         1 <0>         0.0961
     41 H13         2.4111   -4.8209   -0.0708 H         1 <0>         0.0987
     42 H14        -2.6834   -7.0109   -3.4241 H         1 <0>         0.1425
     43 H15        -4.7799   -6.3408   -4.5162 H         1 <0>         0.1458
     44 H16        -5.5733   -3.5940   -1.3343 H         1 <0>         0.1383
     45 H17        -3.4845   -4.2631   -0.2269 H         1 <0>         0.1356
     46 H18        -7.5401   -3.9245   -1.9545 H         1 <0>         0.0997
     47 H19        -6.6699   -2.6482   -2.8389 H         1 <0>         0.0979
     48 H20        -9.2365   -1.9017   -2.4958 H         1 <0>         0.4038
     49 H21       -10.1823   -2.1969   -3.8527 H         1 <0>         0.4131
     50 H22         3.6001    0.5109   -1.7129 H         1 <0>         0.4523
@<TRIPOS>BOND
     1    1    9 ar
     2    1    2 ar
     3    1   29 1
     4    2    3 ar
     5    2   30 1
     6    3    4 ar
     7    3   31 1
     8    4    8 ar
     9    4    5 2
    10    5    6 1
    11    5   50 1
    12    6    7 1
    13    6   32 1
    14    6   33 1
    15    7    8 2
    16    7   10 1
    17    8    9 ar
    18    9   34 1
    19   10   15 1
    20   10   11 2
    21   11   12 1
    22   11   35 1
    23   12   13 1
    24   12   36 1
    25   12   37 1
    26   13   14 1
    27   13   16 am
    28   14   15 1
    29   14   38 1
    30   14   39 1
    31   15   40 1
    32   15   41 1
    33   16   17 2
    34   16   18 1
    35   18   23 ar
    36   18   19 ar
    37   19   20 ar
    38   19   42 1
    39   20   21 ar
    40   20   43 1
    41   21   22 ar
    42   21   24 1
    43   22   23 ar
    44   22   44 1
    45   23   45 1
    46   24   25 1
    47   25   26 1
    48   25   46 1
    49   25   47 1
    50   26   27 2
    51   26   28 am
    52   28   48 1
    53   28   49 1
@<TRIPOS>MOLECULE
ZINC65217067
   49    52     0     0     0
SMALL
USER_CHARGES

@<TRIPOS>ATOM
      1 C1         -0.0187    1.5258    0.0104 C.3       1 <0>        -0.1413
      2 C2          0.0021   -0.0041    0.0020 C.3       1 <0>        -0.0269
      3 C3         -1.4117   -0.5257    0.0127 C.2       1 <0>         0.1250
      4 N1         -2.5103    0.1536    0.0212 N.2       1 <0>        -0.2228
      5 N2         -3.7596   -0.4264    0.0786 N.pl3     1 <0>        -0.5588
      6 C4         -5.1846   -0.1764    0.4042 C.3       1 <0>         0.1649
      7 H1         -5.2761    0.6699    1.0851 H         1 <0>         0.1043
      8 C5         -5.6614   -1.4756    1.0924 C.3       1 <0>         0.0603
      9 H2         -6.5190   -1.8905    0.5630 H         1 <0>         0.1143
     10 N3         -4.5043   -2.4106    1.0136 N.3       1 <0>        -0.6352
     11 C6         -3.7520   -1.9053   -0.1518 C.3       1 <0>         0.2693
     12 H3         -4.1757   -2.2095   -1.1088 H         1 <0>         0.1423
     13 S1         -1.9572   -2.2275    0.0088 S.3       1 <0>        -0.1998
     14 C7         -6.0239   -1.1995    2.5530 C.3       1 <0>        -0.1586
     15 C8         -5.9869    0.0789   -0.8733 C.3       1 <0>         0.1119
     16 N4         -5.3914    1.1974   -1.6085 N.am      1 <0>        -0.7087
     17 C9         -5.9344    1.6034   -2.7733 C.2       1 <0>         0.5209
     18 O1         -6.9160    1.0428   -3.2128 O.2       1 <0>        -0.5353
     19 C10        -5.3219    2.7540   -3.5297 C.3       1 <0>        -0.1162
     20 C11        -6.1121    3.0054   -4.7880 C.2       1 <0>         0.0867
     21 C12        -7.1091    3.9038   -4.9562 C.ar      1 <0>        -0.1615
     22 C13        -7.7332    4.8775   -4.0524 C.ar      1 <0>        -0.0116
     23 C14        -8.7348    5.6574   -4.5188 C.ar      1 <0>        -0.1505
     24 C15        -9.1910    5.5590   -5.8405 C.ar      1 <0>         0.0535
     25 C16        -8.6677    4.6888   -6.7298 C.ar      1 <0>        -0.2087
     26 C17        -7.6088    3.8198   -6.3472 C.ar      1 <0>         0.3302
     27 N5         -6.9464    2.9052   -7.0130 N.pl3     1 <0>        -0.5820
     28 C18        -5.9464    2.3090   -6.1202 C.3       1 <0>         0.0640
     29 H4          1.0039    1.9031    0.0027 H         1 <0>         0.0700
     30 H5         -0.5459    1.8868   -0.8726 H         1 <0>         0.0586
     31 H6         -0.5289    1.8773    0.9072 H         1 <0>         0.0619
     32 H7          0.5123   -0.3556   -0.8948 H         1 <0>         0.0979
     33 H8          0.5293   -0.3651    0.8851 H         1 <0>         0.1020
     34 H9         -3.9451   -2.3654    1.8523 H         1 <0>         0.3554
     35 H10        -6.8235   -0.4600    2.5954 H         1 <0>         0.0751
     36 H11        -6.3580   -2.1233    3.0253 H         1 <0>         0.0794
     37 H12        -5.1484   -0.8186    3.0789 H         1 <0>         0.0605
     38 H13        -5.9715   -0.8150   -1.4967 H         1 <0>         0.0803
     39 H14        -7.0169    0.3226   -0.6129 H         1 <0>         0.0960
     40 H15        -4.6063    1.6457   -1.2571 H         1 <0>         0.4118
     41 H16        -5.3373    3.6479   -2.9062 H         1 <0>         0.1376
     42 H17        -4.2919    2.5103   -3.7901 H         1 <0>         0.1395
     43 H18        -7.3977    4.9695   -3.0299 H         1 <0>         0.1580
     44 H19        -9.1954    6.3745   -3.8555 H         1 <0>         0.1579
     45 H20        -9.9946    6.2059   -6.1604 H         1 <0>         0.1613
     46 H21        -9.0553    4.6519   -7.7371 H         1 <0>         0.1611
     47 H22        -4.9428    2.4783   -6.5104 H         1 <0>         0.1739
     48 H23        -6.1325    1.2405   -6.0113 H         1 <0>         0.1760
     49 H24        -7.0907    2.6655   -7.9418 H         1 <0>         0.4560
@<TRIPOS>BOND
     1    1    2 1
     2    1   29 1
     3    1   30 1
     4    1   31 1
     5    2    3 1
     6    2   32 1
     7    2   33 1
     8    3   13 1
     9    3    4 2
    10    4    5 1
    11    5   11 1
    12    5    6 1
    13    6    7 1
    14    6    8 1
    15    6   15 1
    16    8    9 1
    17    8   10 1
    18    8   14 1
    19   10   11 1
    20   10   34 1
    21   11   12 1
    22   11   13 1
    23   14   35 1
    24   14   36 1
    25   14   37 1
    26   15   16 1
    27   15   38 1
    28   15   39 1
    29   16   17 am
    30   16   40 1
    31   17   18 2
    32   17   19 1
    33   19   20 1
    34   19   41 1
    35   19   42 1
    36   20   28 1
    37   20   21 2
    38   21   26 ar
    39   21   22 ar
    40   22   23 ar
    41   22   43 1
    42   23   24 ar
    43   23   44 1
    44   24   25 ar
    45   24   45 1
    46   25   26 ar
    47   25   46 1
    48   26   27 2
    49   27   28 1
    50   27   49 1
    51   28   47 1
    52   28   48 1
@<TRIPOS>MOLECULE
ZINC05502555
   43    46     0     0     0
SMALL
USER_CHARGES
(2-dimethylaminoethylamino)-hydroxy-BLAHone
@<TRIPOS>ATOM
      1 C1         -0.1505   -0.3431   -2.5555 C.3       1 <0>        -0.0500
      2 C2         -0.6002    1.7740   -3.6412 C.3       1 <0>        -0.0420
      3 C3         -0.7527    1.5927   -1.2315 C.3       1 <0>        -0.0187
      4 C4         -0.0127    1.0858    0.0080 C.3       1 <0>         0.0929
      5 N1         -0.6984    1.5583    1.2133 N.pl3     1 <0>        -0.7225
      6 C5         -0.2079    1.2228    2.4670 C.ar      1 <0>         0.3056
      7 C6          0.9360    0.4301    2.5979 C.ar      1 <0>        -0.2160
      8 C7          1.4555    0.0832    3.8282 C.ar      1 <0>         0.0432
      9 C8          0.8265    0.5165    5.0002 C.ar      1 <0>         0.0018
     10 C9         -0.3133    1.2981    4.8554 C.ar      1 <0>         0.1006
     11 C10        -0.8511    1.6660    3.6292 C.ar      1 <0>        -0.2434
     12 C11        -2.0624    2.4974    3.6536 C.2       1 <0>         0.4543
     13 O1         -2.6052    2.8714    2.6296 O.2       1 <0>        -0.4776
     14 C12        -2.5882    2.8560    4.9935 C.ar      1 <0>        -0.1622
     15 C13        -3.7383    3.6430    5.0943 C.ar      1 <0>        -0.0633
     16 C14        -4.2335    3.9811    6.3386 C.ar      1 <0>         0.0952
     17 C15        -3.5898    3.5406    7.4907 C.ar      1 <0>        -0.0797
     18 C16        -2.4553    2.7636    7.4032 C.ar      1 <0>        -0.1281
     19 C17        -1.9409    2.4129    6.1600 C.ar      1 <0>         0.1800
     20 N2         -0.7954    1.6297    6.0799 N.pl3     1 <0>        -0.4243
     21 C18         0.0573    1.0473    6.9736 C.2       1 <0>         0.2627
     22 N3          1.0036    0.3978    6.3402 N.2       1 <0>        -0.4482
     23 O2         -5.3525    4.7468    6.4378 O.3       1 <0>        -0.4898
     24 H1         -1.1972   -0.6428   -2.6087 H         1 <0>         0.1259
     25 H2          0.3665   -0.6671   -3.4588 H         1 <0>         0.1272
     26 H3          0.3156   -0.8041   -1.6848 H         1 <0>         0.1232
     27 H4         -0.4609    2.8520   -3.5597 H         1 <0>         0.1235
     28 H5         -0.0736    1.4051   -4.5214 H         1 <0>         0.1267
     29 H6         -1.6631    1.5509   -3.7337 H         1 <0>         0.1250
     30 H7         -1.7753    1.2154   -1.2238 H         1 <0>         0.1403
     31 H8         -0.7675    2.6825   -1.2255 H         1 <0>         0.1385
     32 H9          0.0021   -0.0041    0.0020 H         1 <0>         0.0877
     33 H10         1.0099    1.4631    0.0003 H         1 <0>         0.0876
     34 H11        -1.4954    2.1056    1.1349 H         1 <0>         0.4231
     35 H12         1.4335    0.0815    1.7050 H         1 <0>         0.1359
     36 H13         2.3445   -0.5273    3.8863 H         1 <0>         0.1484
     37 H14        -4.2393    3.9859    4.2011 H         1 <0>         0.1522
     38 H15        -3.9824    3.8092    8.4603 H         1 <0>         0.1510
     39 H16        -1.9637    2.4260    8.3036 H         1 <0>         0.1479
     40 H17        -0.0348    1.1124    8.0477 H         1 <0>         0.2266
     41 H18        -6.1752    4.2393    6.4660 H         1 <0>         0.3987
     42 N4         -0.0374    1.1260   -2.4378 N.4       1 <0>        -0.3935
     43 H19         0.9545    1.3786   -2.3560 H         1 <0>         0.4337
@<TRIPOS>BOND
     1    1   24 1
     2    1   25 1
     3    1   26 1
     4    1   42 1
     5    2   27 1
     6    2   28 1
     7    2   29 1
     8    2   42 1
     9    3    4 1
    10    3   30 1
    11    3   31 1
    12    3   42 1
    13    4    5 1
    14    4   32 1
    15    4   33 1
    16    5    6 1
    17    5   34 1
    18    6   11 ar
    19    6    7 ar
    20    7    8 ar
    21    7   35 1
    22    8    9 ar
    23    8   36 1
    24    9   22 1
    25    9   10 ar
    26   10   20 1
    27   10   11 ar
    28   11   12 1
    29   12   13 2
    30   12   14 1
    31   14   19 ar
    32   14   15 ar
    33   15   16 ar
    34   15   37 1
    35   16   17 ar
    36   16   23 1
    37   17   18 ar
    38   17   38 1
    39   18   19 ar
    40   18   39 1
    41   19   20 1
    42   20   21 1
    43   21   22 2
    44   21   40 1
    45   23   41 1
    46   42   43 1
@<TRIPOS>MOLECULE
ZINC37813005
   44    45     0     0     0
SMALL
USER_CHARGES

@<TRIPOS>ATOM
      1 C1         -0.0187    1.5258    0.0104 C.3       1 <0>        -0.1595
      2 C2          0.0021   -0.0041    0.0020 C.3       1 <0>        -0.1259
      3 C3         -1.4333   -0.5336    0.0129 C.3       1 <0>        -0.1332
      4 C4         -1.4126   -2.0635    0.0045 C.3       1 <0>        -0.1464
      5 C5         -2.8479   -2.5931    0.0153 C.3       1 <0>         0.0064
      6 H1         -3.4008   -2.1613   -0.8189 H         1 <0>         0.1654
      7 C6         -2.8306   -4.0942   -0.1167 C.2       1 <0>         0.5031
      8 O1         -2.9648   -4.7910    0.8668 O.2       1 <0>        -0.5215
      9 N1         -2.6659   -4.6622   -1.3278 N.am      1 <0>        -0.5858
     10 C7         -2.4960   -3.8303   -2.5273 C.3       1 <0>         0.0767
     11 C8         -1.1955   -4.2415   -3.2288 C.3       1 <0>         0.1114
     12 N2         -1.1821   -5.7040   -3.3734 N.pl3     1 <0>        -0.5857
     13 C9         -1.3520   -6.5359   -2.1738 C.3       1 <0>         0.1115
     14 C10        -2.6469   -6.1247   -1.4716 C.3       1 <0>         0.0942
     15 C11        -1.0130   -6.2876   -4.6174 C.ar      1 <0>         0.5717
     16 N3         -0.8573   -5.5114   -5.6797 N.ar      1 <0>        -0.5622
     17 C12        -0.6933   -6.0364   -6.8828 C.ar      1 <0>         0.2316
     18 C13        -0.6858   -7.4160   -7.0232 C.ar      1 <0>        -0.2623
     19 C14        -0.8514   -8.1983   -5.8902 C.ar      1 <0>         0.2328
     20 N4         -1.0053   -7.6087   -4.7161 N.ar      1 <0>        -0.5594
     21 Br1        -0.4553   -8.2131   -8.7225 Br        1 <0>        -0.0091
     22 N5         -3.4979   -2.2202    1.2788 N.4       1 <0>        -0.6209
     23 H2          1.0039    1.9031    0.0027 H         1 <0>         0.0643
     24 H3         -0.5459    1.8868   -0.8726 H         1 <0>         0.0588
     25 H4         -0.5289    1.8773    0.9072 H         1 <0>         0.0561
     26 H5          0.5123   -0.3556   -0.8948 H         1 <0>         0.0723
     27 H6          0.5293   -0.3651    0.8851 H         1 <0>         0.0688
     28 H7         -1.9435   -0.1821    0.9097 H         1 <0>         0.0632
     29 H8         -1.9605   -0.1726   -0.8702 H         1 <0>         0.0835
     30 H9         -0.9024   -2.4150   -0.8923 H         1 <0>         0.1168
     31 H10        -0.8854   -2.4246    0.8875 H         1 <0>         0.1016
     32 H11        -3.3391   -3.9832   -3.2010 H         1 <0>         0.0947
     33 H12        -2.4402   -2.7805   -2.2395 H         1 <0>         0.0988
     34 H13        -1.1479   -3.7761   -4.2133 H         1 <0>         0.1222
     35 H14        -0.3412   -3.9253   -2.6302 H         1 <0>         0.0759
     36 H15        -1.4078   -7.5858   -2.4616 H         1 <0>         0.1222
     37 H16        -0.5089   -6.3830   -1.5002 H         1 <0>         0.0770
     38 H17        -2.6907   -6.5897   -0.4868 H         1 <0>         0.1157
     39 H18        -3.5010   -6.4447   -2.0684 H         1 <0>         0.0884
     40 H19        -0.5672   -5.3985   -7.7450 H         1 <0>         0.1806
     41 H20        -0.8504   -9.2757   -5.9648 H         1 <0>         0.1810
     42 H21        -2.9861   -2.6198    2.0511 H         1 <0>         0.4427
     43 H22        -3.5095   -1.2151    1.3673 H         1 <0>         0.4413
     44 H23        -4.4445   -2.5694    1.2860 H         1 <0>         0.4412
@<TRIPOS>BOND
     1    1    2 1
     2    1   23 1
     3    1   24 1
     4    1   25 1
     5    2    3 1
     6    2   26 1
     7    2   27 1
     8    3    4 1
     9    3   28 1
    10    3   29 1
    11    4    5 1
    12    4   30 1
    13    4   31 1
    14    5    6 1
    15    5    7 1
    16    5   22 1
    17    7    8 2
    18    7    9 am
    19    9   14 1
    20    9   10 1
    21   10   11 1
    22   10   32 1
    23   10   33 1
    24   11   12 1
    25   11   34 1
    26   11   35 1
    27   12   13 1
    28   12   15 1
    29   13   14 1
    30   13   36 1
    31   13   37 1
    32   14   38 1
    33   14   39 1
    34   15   20 ar
    35   15   16 ar
    36   16   17 ar
    37   17   18 ar
    38   17   40 1
    39   18   19 ar
    40   18   21 1
    41   19   20 ar
    42   19   41 1
    43   22   42 1
    44   22   43 1
    45   22   44 1
@<TRIPOS>MOLECULE
ZINC40334978
   36    37     0     0     0
SMALL
USER_CHARGES

@<TRIPOS>ATOM
      1 C1          0.1439    1.7029    0.1854 C.3       1 <0>         0.0474
      2 N1          0.0253    0.2466    0.0801 N.pl3     1 <0>        -0.3971
      3 C2         -0.0563   -0.4802   -1.0769 C.2       1 <0>         0.0270
      4 C3         -0.1518   -1.7747   -0.7181 C.2       1 <0>         0.0109
      5 N2         -0.1290   -1.8366    0.6216 N.pl3     1 <0>        -0.4595
      6 C4         -0.0180   -0.6301    1.1064 C.cat     1 <0>         0.2755
      7 C5          0.0472   -0.2739    2.5692 C.3       1 <0>         0.1766
      8 N3          1.4482   -0.1606    2.9822 N.pl3     1 <0>        -0.9966
      9 C6          2.1682    1.1010    2.7922 C.3       1 <0>         0.0588
     10 S1          2.2181   -1.4587    3.6639 S.o2      1 <0>         2.6861
     11 O1          1.6340   -2.6223    3.0944 O.2       1 <0>        -0.9639
     12 O2          3.6115   -1.1905    3.5877 O.2       1 <0>        -0.9173
     13 C7          1.8006   -1.4720    5.3757 C.ar      1 <0>        -0.7260
     14 C8          1.0045   -2.4821    5.8839 C.ar      1 <0>         0.0330
     15 C9          0.6750   -2.4954    7.2248 C.ar      1 <0>        -0.2034
     16 C10         1.1445   -1.4928    8.0643 C.ar      1 <0>         0.2863
     17 C11         1.9441   -0.4798    7.5516 C.ar      1 <0>        -0.1850
     18 C12         2.2747   -0.4750    6.2096 C.ar      1 <0>         0.0483
     19 Br1         3.3698    0.8994    5.5112 Br        1 <0>        -0.0152
     20 N4          0.8124   -1.5034    9.4210 N.pl3     1 <0>        -0.8521
     21 H1          1.1974    1.9826    0.1851 H         1 <0>         0.1138
     22 H2         -0.3563    2.1705   -0.6627 H         1 <0>         0.1235
     23 H3         -0.3210    2.0393    1.1121 H         1 <0>         0.1148
     24 H4         -0.0465   -0.0904   -2.0841 H         1 <0>         0.2270
     25 H5         -0.2325   -2.6155   -1.3910 H         1 <0>         0.2275
     26 H6         -0.4583    0.6775    2.7344 H         1 <0>         0.1401
     27 H7         -0.4424   -1.0520    3.1549 H         1 <0>         0.1354
     28 H8          2.0468    1.7255    3.6773 H         1 <0>         0.0816
     29 H9          3.2270    0.8951    2.6353 H         1 <0>         0.1006
     30 H10         1.7665    1.6212    1.9226 H         1 <0>         0.0730
     31 H11         0.6397   -3.2614    5.2312 H         1 <0>         0.1514
     32 H12         0.0527   -3.2843    7.6206 H         1 <0>         0.1424
     33 H13         2.3103    0.3013    8.2015 H         1 <0>         0.1451
     34 H14         0.2535   -2.2113    9.7780 H         1 <0>         0.4109
     35 H15         1.1407   -0.8029   10.0061 H         1 <0>         0.4100
     36 H16        -0.1828   -2.6502    1.1471 H         1 <0>         0.4691
@<TRIPOS>BOND
     1    1    2 1
     2    1   21 1
     3    1   22 1
     4    1   23 1
     5    2    6 1
     6    2    3 1
     7    3    4 2
     8    3   24 1
     9    4    5 1
    10    4   25 1
    11    5    6 2
    12    5   36 1
    13    6    7 1
    14    7    8 1
    15    7   26 1
    16    7   27 1
    17    8    9 1
    18    8   10 1
    19    9   28 1
    20    9   29 1
    21    9   30 1
    22   10   11 2
    23   10   12 2
    24   10   13 1
    25   13   18 ar
    26   13   14 ar
    27   14   15 ar
    28   14   31 1
    29   15   16 ar
    30   15   32 1
    31   16   17 ar
    32   16   20 1
    33   17   18 ar
    34   17   33 1
    35   18   19 1
    36   20   34 1
    37   20   35 1
@<TRIPOS>MOLECULE
ZINC20463808
   47    48     0     0     0
SMALL
USER_CHARGES

@<TRIPOS>ATOM
      1 C1          0.2717    2.5080    1.3444 C.3       1 <0>        -0.1164
      2 C2          0.2042    1.0367    1.0256 C.ar      1 <0>        -0.0772
      3 C3          0.1563    0.6167   -0.2912 C.ar      1 <0>        -0.0916
      4 C4          0.0944   -0.7323   -0.5878 C.ar      1 <0>        -0.1053
      5 C5          0.0805   -1.6650    0.4311 C.ar      1 <0>        -0.0533
      6 C6          0.1289   -1.2465    1.7540 C.ar      1 <0>         0.1163
      7 C7          0.1960    0.1089    2.0485 C.ar      1 <0>        -0.0794
      8 N1          0.1146   -2.1900    2.7896 N.am      1 <0>        -0.4644
      9 C8          1.2838   -2.6779    3.2527 C.2       1 <0>         0.5777
     10 O1          2.3442   -2.3096    2.7834 O.2       1 <0>        -0.5040
     11 C9          1.2421   -3.6688    4.3428 C.2       1 <0>        -0.4072
     12 C10         2.3993   -4.2123    4.8683 C.2       1 <0>         0.3441
     13 N2          3.5874   -3.9660    4.2802 N.pl3     1 <0>        -0.6764
     14 C11         4.8256   -4.4398    4.9036 C.3       1 <0>         0.0729
     15 C12         6.0203   -4.0312    4.0397 C.3       1 <0>        -0.0249
     16 N3          7.2619   -4.5063    4.6648 N.4       1 <0>        -0.3823
     17 C13         7.2740   -5.9752    4.6751 C.3       1 <0>        -0.0574
     18 C14         8.4151   -4.0124    3.9005 C.3       1 <0>        -0.0478
     19 C15        -0.0877   -4.0546    4.8485 C.2       1 <0>         0.5757
     20 O2         -0.2029   -4.8666    5.7474 O.2       1 <0>        -0.4875
     21 N4         -1.1733   -3.4828    4.2882 N.am      1 <0>        -0.6150
     22 C16        -1.0604   -2.5829    3.3012 C.2       1 <0>         0.5222
     23 S1         -2.4933   -1.9047    2.6548 S.2       1 <0>        -0.4679
     24 C17         0.0125   -3.1351    0.1071 C.3       1 <0>        -0.1152
     25 H1          1.3144    2.8219    1.3925 H         1 <0>         0.0723
     26 H2         -0.2421    3.0724    0.5662 H         1 <0>         0.0739
     27 H3         -0.2084    2.6940    2.3052 H         1 <0>         0.0690
     28 H4          0.1671    1.3440   -1.0896 H         1 <0>         0.1325
     29 H5          0.0564   -1.0572   -1.6170 H         1 <0>         0.1343
     30 H6          0.2378    0.4374    3.0765 H         1 <0>         0.1229
     31 H7          2.3519   -4.8342    5.7501 H         1 <0>         0.1856
     32 H8          4.9257   -3.9974    5.8948 H         1 <0>         0.1037
     33 H9          4.7955   -5.5258    4.9918 H         1 <0>         0.1037
     34 H10         5.9202   -4.4736    3.0485 H         1 <0>         0.1421
     35 H11         6.0504   -2.9452    3.9515 H         1 <0>         0.1441
     36 H12         8.1953   -6.3277    5.1389 H         1 <0>         0.1315
     37 H13         6.4184   -6.3416    5.2422 H         1 <0>         0.1250
     38 H14         7.2175   -6.3461    3.6517 H         1 <0>         0.1264
     39 H15         8.4061   -2.9224    3.8929 H         1 <0>         0.1267
     40 H16         9.3363   -4.3649    4.3643 H         1 <0>         0.1306
     41 H17         8.3585   -4.3833    2.8771 H         1 <0>         0.1251
     42 H18         1.0226   -3.5317    0.0043 H         1 <0>         0.0695
     43 H19        -0.5042   -3.6607    0.9101 H         1 <0>         0.0554
     44 H20        -0.5301   -3.2764   -0.8277 H         1 <0>         0.0809
     45 H21        -2.0558   -3.7257    4.6093 H         1 <0>         0.4496
     46 H22         3.6222   -3.4752    3.4443 H         1 <0>         0.4289
     47 H23         7.3143   -4.1629    5.6121 H         1 <0>         0.4308
@<TRIPOS>BOND
     1    1    2 1
     2    1   25 1
     3    1   26 1
     4    1   27 1
     5    2    7 ar
     6    2    3 ar
     7    3    4 ar
     8    3   28 1
     9    4    5 ar
    10    4   29 1
    11    5    6 ar
    12    5   24 1
    13    6    7 ar
    14    6    8 1
    15    7   30 1
    16    8   22 1
    17    8    9 am
    18    9   10 2
    19    9   11 1
    20   11   19 1
    21   11   12 2
    22   12   31 1
    23   12   13 1
    24   13   14 1
    25   13   46 1
    26   14   15 1
    27   14   32 1
    28   14   33 1
    29   15   16 1
    30   15   34 1
    31   15   35 1
    32   16   17 1
    33   16   18 1
    34   16   47 1
    35   17   36 1
    36   17   37 1
    37   17   38 1
    38   18   39 1
    39   18   40 1
    40   18   41 1
    41   19   20 2
    42   19   21 am
    43   21   22 1
    44   21   45 1
    45   22   23 2
    46   24   42 1
    47   24   43 1
    48   24   44 1
@<TRIPOS>MOLECULE
ZINC66533378
   50    51     0     0     0
SMALL
USER_CHARGES

@<TRIPOS>ATOM
      1 C1          1.2712   -0.0939   -0.8477 C.3       1 <0>        -0.1882
      2 C2          0.0021   -0.0041    0.0020 C.3       1 <0>         0.0695
      3 H1         -0.8001   -0.5603   -0.4831 H         1 <0>         0.1194
      4 C3         -0.4042    1.4399    0.1470 C.2       1 <0>         0.5272
      5 O1         -0.2190    2.0193    1.1957 O.2       1 <0>        -0.4488
      6 N1         -0.9735    2.0870   -0.8891 N.am      1 <0>        -0.6878
      7 C4         -1.3368    3.3784   -0.7595 C.2       1 <0>         0.7048
      8 O2         -1.1511    3.9593    0.2918 O.2       1 <0>        -0.5187
      9 N2         -1.9061    4.0256   -1.7956 N.am      1 <0>        -0.7361
     10 C5         -2.3011    5.4293   -1.6546 C.3       1 <0>         0.0938
     11 C6         -2.9176    5.9198   -2.9662 C.3       1 <0>         0.4499
     12 F1         -4.0434    5.1468   -3.2701 F         1 <0>        -0.1766
     13 F2         -3.2947    7.2602   -2.8316 F         1 <0>        -0.1666
     14 F3         -1.9783    5.8008   -3.9962 F         1 <0>        -0.1768
     15 N3          0.2606   -0.5757    1.3303 N.3       1 <0>        -0.5205
     16 C7          0.2765   -2.0432    1.2776 C.3       1 <0>         0.0562
     17 C8          0.4024   -2.6045    2.6958 C.3       1 <0>        -0.1363
     18 C9          1.6939   -2.0840    3.3327 C.3       1 <0>         0.0245
     19 C10         1.6733   -0.5529    3.3314 C.3       1 <0>        -0.1336
     20 C11         1.5106   -0.0511    1.8948 C.3       1 <0>         0.0466
     21 N4          1.7912   -2.5724    4.7147 N.4       1 <0>        -0.3878
     22 C12         3.0474   -2.0888    5.3261 C.3       1 <0>        -0.0106
     23 C13         3.5184   -3.2516    6.2347 C.3       1 <0>        -0.1432
     24 C14         3.1214   -4.4904    5.3895 C.3       1 <0>        -0.1414
     25 C15         1.8036   -4.0468    4.7202 C.3       1 <0>        -0.0156
     26 H2          1.5651   -1.1383   -0.9526 H         1 <0>         0.0762
     27 H3          1.0794    0.3303   -1.8333 H         1 <0>         0.0780
     28 H4          2.0734    0.4623   -0.3627 H         1 <0>         0.0720
     29 H5         -1.1217    1.6234   -1.7282 H         1 <0>         0.4131
     30 H6         -2.0543    3.5619   -2.6346 H         1 <0>         0.4079
     31 H7         -3.0328    5.5220   -0.8521 H         1 <0>         0.1208
     32 H8         -1.4239    6.0315   -1.4179 H         1 <0>         0.1206
     33 H9         -0.6491   -2.4005    0.8264 H         1 <0>         0.0992
     34 H10         1.1243   -2.3759    0.6788 H         1 <0>         0.0514
     35 H11        -0.4522   -2.2835    3.2914 H         1 <0>         0.0974
     36 H12         0.4299   -3.6934    2.6550 H         1 <0>         0.0940
     37 H13         2.5509   -2.4373    2.7594 H         1 <0>         0.1328
     38 H14         0.8387   -0.1997    3.9370 H         1 <0>         0.0971
     39 H15         2.6088   -0.1761    3.7447 H         1 <0>         0.0922
     40 H16         2.3526   -0.3932    1.2930 H         1 <0>         0.0495
     41 H17         1.4812    1.0385    1.8919 H         1 <0>         0.1147
     42 H18         3.7906   -1.8847    4.5552 H         1 <0>         0.1306
     43 H19         2.8605   -1.1945    5.9205 H         1 <0>         0.1352
     44 H20         4.5967   -3.2139    6.3897 H         1 <0>         0.1166
     45 H21         2.9881   -3.2424    7.1870 H         1 <0>         0.0990
     46 H22         3.8819   -4.7045    4.6386 H         1 <0>         0.0974
     47 H23         2.9558   -5.3569    6.0297 H         1 <0>         0.1127
     48 H24         0.9536   -4.4226    5.2897 H         1 <0>         0.1319
     49 H25         1.7624   -4.4217    3.6976 H         1 <0>         0.1309
     50 H26         1.0043   -2.2374    5.2502 H         1 <0>         0.4254
@<TRIPOS>BOND
     1    1    2 1
     2    1   26 1
     3    1   27 1
     4    1   28 1
     5    2    3 1
     6    2    4 1
     7    2   15 1
     8    4    5 2
     9    4    6 am
    10    6    7 am
    11    6   29 1
    12    7    8 2
    13    7    9 am
    14    9   10 1
    15    9   30 1
    16   10   11 1
    17   10   31 1
    18   10   32 1
    19   11   12 1
    20   11   13 1
    21   11   14 1
    22   15   20 1
    23   15   16 1
    24   16   17 1
    25   16   33 1
    26   16   34 1
    27   17   18 1
    28   17   35 1
    29   17   36 1
    30   18   19 1
    31   18   21 1
    32   18   37 1
    33   19   20 1
    34   19   38 1
    35   19   39 1
    36   20   40 1
    37   20   41 1
    38   21   25 1
    39   21   22 1
    40   21   50 1
    41   22   23 1
    42   22   42 1
    43   22   43 1
    44   23   24 1
    45   23   44 1
    46   23   45 1
    47   24   25 1
    48   24   46 1
    49   24   47 1
    50   25   48 1
    51   25   49 1
@<TRIPOS>MOLECULE
ZINC08766880
   48    50     0     0     0
SMALL
USER_CHARGES
2,6-bis(2-chlorophenyl)-4,4-dimethyl-3,5-dinitro-piperidine
@<TRIPOS>ATOM
      1 C1          3.6917    6.2007   -0.2889 C.3       1 <0>        -0.1549
      2 C2          3.8057    4.9622   -1.1800 C.3       1 <0>        -0.0700
      3 C3          4.9628    4.0858   -0.6923 C.3       1 <0>        -0.0035
      4 H1          5.8861    4.6651   -0.6994 H         1 <0>         0.1947
      5 C4          4.6698    3.6087    0.7320 C.3       1 <0>         0.0843
      6 H2          4.5779    4.4711    1.3922 H         1 <0>         0.1800
      7 C5          2.2818    3.6805    0.3264 C.3       1 <0>         0.0849
      8 H3          2.2012    4.5427    0.9884 H         1 <0>         0.1803
      9 C6          2.5035    4.1598   -1.1100 C.3       1 <0>        -0.0051
     10 H4          1.6697    4.7919   -1.4155 H         1 <0>         0.1943
     11 N1          2.5936    3.0023   -2.0034 N.pl3     1 <0>        -0.0448
     12 O1          2.5531    1.8745   -1.5450 O.2       1 <0>        -0.1646
     13 O2          2.7091    3.1676   -3.2046 O.3       1 <0>        -0.0635
     14 C7          1.0110    2.8735    0.3959 C.ar      1 <0>        -0.1627
     15 C8          1.0686    1.4923    0.3993 C.ar      1 <0>        -0.0757
     16 C9         -0.0968    0.7519    0.4636 C.ar      1 <0>        -0.0940
     17 C10        -1.3211    1.3921    0.5188 C.ar      1 <0>        -0.0653
     18 C11        -1.3796    2.7728    0.5212 C.ar      1 <0>        -0.0963
     19 C12        -0.2132    3.5146    0.4569 C.ar      1 <0>        -0.0122
     20 Cl1        -0.2863    5.2490    0.4521 Cl        1 <0>        -0.0468
     21 C13         5.7971    2.7294    1.2086 C.ar      1 <0>        -0.1676
     22 C14         5.7029    1.3560    1.0832 C.ar      1 <0>        -0.0778
     23 C15         6.7366    0.5493    1.5208 C.ar      1 <0>        -0.0957
     24 C16         7.8656    1.1156    2.0832 C.ar      1 <0>        -0.0641
     25 C17         7.9610    2.4885    2.2086 C.ar      1 <0>        -0.0976
     26 C18         6.9286    3.2968    1.7664 C.ar      1 <0>        -0.0095
     27 Cl2         7.0509    5.0219    1.9171 Cl        1 <0>        -0.0457
     28 N2          5.1049    2.9267   -1.5769 N.pl3     1 <0>        -0.0442
     29 O3          4.8734    1.8074   -1.1561 O.2       1 <0>        -0.1739
     30 O4          5.4546    3.0823   -2.7332 O.3       1 <0>        -0.0555
     31 C19         4.0649    5.3938   -2.6247 C.3       1 <0>        -0.1841
     32 H5          4.6211    6.7682   -0.3349 H         1 <0>         0.1069
     33 H6          2.8678    6.8239   -0.6368 H         1 <0>         0.1066
     34 H7          3.5048    5.8923    0.7397 H         1 <0>         0.0680
     35 H8          2.0243    0.9916    0.3514 H         1 <0>         0.1366
     36 H9         -0.0514   -0.3271    0.4662 H         1 <0>         0.1516
     37 H10        -2.2316    0.8131    0.5645 H         1 <0>         0.1524
     38 H11        -2.3357    3.2728    0.5685 H         1 <0>         0.1531
     39 H12         4.8214    0.9131    0.6437 H         1 <0>         0.1425
     40 H13         6.6624   -0.5237    1.4230 H         1 <0>         0.1516
     41 H14         8.6732    0.4848    2.4243 H         1 <0>         0.1525
     42 H15         8.8431    2.9307    2.6476 H         1 <0>         0.1533
     43 H16         4.1438    4.5110   -3.2591 H         1 <0>         0.1126
     44 H17         3.2408    6.0176   -2.9710 H         1 <0>         0.0973
     45 H18         4.9948    5.9604   -2.6734 H         1 <0>         0.0975
     46 N3          3.4141    2.8343    0.7489 N.4       1 <0>        -0.5188
     47 H19         3.2421    2.4896    1.7006 H         1 <0>         0.4504
     48 H20         3.4993    2.0379    0.1065 H         1 <0>         0.4422
@<TRIPOS>BOND
     1    1    2 1
     2    1   32 1
     3    1   33 1
     4    1   34 1
     5    2    9 1
     6    2    3 1
     7    2   31 1
     8    3    4 1
     9    3    5 1
    10    3   28 1
    11    5    6 1
    12    5   21 1
    13    5   46 1
    14    7    8 1
    15    7    9 1
    16    7   14 1
    17    7   46 1
    18    9   10 1
    19    9   11 1
    20   11   12 2
    21   11   13 1
    22   14   19 ar
    23   14   15 ar
    24   15   16 ar
    25   15   35 1
    26   16   17 ar
    27   16   36 1
    28   17   18 ar
    29   17   37 1
    30   18   19 ar
    31   18   38 1
    32   19   20 1
    33   21   26 ar
    34   21   22 ar
    35   22   23 ar
    36   22   39 1
    37   23   24 ar
    38   23   40 1
    39   24   25 ar
    40   24   41 1
    41   25   26 ar
    42   25   42 1
    43   26   27 1
    44   28   29 2
    45   28   30 1
    46   31   43 1
    47   31   44 1
    48   31   45 1
    49   46   47 1
    50   46   48 1
@<TRIPOS>MOLECULE
ZINC06443943
   71    76     0     0     0
SMALL
USER_CHARGES
3-[(R)-4-azaspiro[5.5]undecan-4-yl-(1-cyclopentyltetrazol-5-yl)methyl]-8-methyl-1H-quinolin-2-one
@<TRIPOS>ATOM
      1 C1         -0.0731    1.7203    0.2143 C.3       1 <0>        -0.1237
      2 C2         -0.1424    0.2167    0.1419 C.ar      1 <0>        -0.1262
      3 C3         -0.2670   -0.4123   -1.0784 C.ar      1 <0>        -0.0393
      4 C4         -0.3261   -1.7966   -1.1590 C.ar      1 <0>        -0.1369
      5 C5         -0.2737   -2.5619   -0.0282 C.ar      1 <0>        -0.0471
      6 C6         -0.1532   -1.9452    1.2211 C.ar      1 <0>        -0.1522
      7 C7         -0.0866   -0.5415    1.3065 C.ar      1 <0>         0.2004
      8 N1          0.0330    0.0614    2.5406 N.am      1 <0>        -0.6147
      9 H1          0.0787    1.0286    2.5977 H         1 <0>         0.4268
     10 C8          0.0864   -0.6721    3.6662 C.2       1 <0>         0.5439
     11 O1          0.1920   -0.1054    4.7401 O.2       1 <0>        -0.5198
     12 C9          0.0238   -2.0818    3.6355 C.2       1 <0>        -0.2824
     13 C10        -0.0937   -2.7346    2.4529 C.2       1 <0>         0.0722
     14 C11         0.0882   -2.8643    4.9217 C.3       1 <0>         0.2125
     15 H2          0.1292   -3.9301    4.6970 H         1 <0>         0.1587
     16 C12        -1.1369   -2.5722    5.7493 C.2       1 <0>         0.1131
     17 N2         -1.3757   -1.4816    6.4359 N.2       1 <0>        -0.2483
     18 N3         -2.5249   -1.6124    7.0037 N.2       1 <0>        -0.0572
     19 N4         -3.0218   -2.7614    6.7034 N.2       1 <0>        -0.0526
     20 N5         -2.1957   -3.3830    5.9316 N.pl3     1 <0>        -0.2741
     21 C13        -2.3763   -4.7199    5.3604 C.3       1 <0>         0.1258
     22 C14        -3.6713   -4.7664    4.5234 C.3       1 <0>        -0.1341
     23 C15        -4.2469   -6.1796    4.7937 C.3       1 <0>        -0.1218
     24 C16        -3.9322   -6.3963    6.2947 C.3       1 <0>        -0.1253
     25 C17        -2.5417   -5.7560    6.4860 C.3       1 <0>        -0.1335
     26 C18         1.2960   -3.0841    7.0082 C.3       1 <0>        -0.0058
     27 C19         2.4821   -2.5446    7.8109 C.3       1 <0>        -0.1451
     28 C20         3.7830   -2.8745    7.0736 C.3       1 <0>        -0.1257
     29 C21         3.7306   -2.2701    5.6679 C.3       1 <0>        -0.0706
     30 C22         2.5086   -2.8171    4.9270 C.3       1 <0>        -0.0019
     31 C23         3.6259   -0.7475    5.7719 C.3       1 <0>        -0.1284
     32 C24         3.5756   -0.1421    4.3677 C.3       1 <0>        -0.1224
     33 C25         4.8488   -0.5154    3.6057 C.3       1 <0>        -0.1250
     34 C26         4.9517   -2.0382    3.5004 C.3       1 <0>        -0.1266
     35 C27         5.0019   -2.6445    4.9043 C.3       1 <0>        -0.1061
     36 H3          0.9675    2.0394    0.1545 H         1 <0>         0.0829
     37 H4         -0.6332    2.1502   -0.6161 H         1 <0>         0.0862
     38 H5         -0.5033    2.0589    1.1568 H         1 <0>         0.0646
     39 H6         -0.3142    0.1781   -1.9815 H         1 <0>         0.1436
     40 H7         -0.4192   -2.2731   -2.1238 H         1 <0>         0.1421
     41 H8         -0.3247   -3.6383   -0.0990 H         1 <0>         0.1434
     42 H9         -0.1420   -3.8130    2.4202 H         1 <0>         0.1587
     43 H10        -1.5198   -4.9785    4.7378 H         1 <0>         0.1167
     44 H11        -4.3699   -3.9997    4.8585 H         1 <0>         0.0901
     45 H12        -3.4457   -4.6417    3.4643 H         1 <0>         0.0847
     46 H13        -3.7408   -6.9258    4.1812 H         1 <0>         0.0789
     47 H14        -5.3225   -6.1989    4.6179 H         1 <0>         0.0855
     48 H15        -3.8973   -7.4606    6.5274 H         1 <0>         0.0828
     49 H16        -4.6727   -5.8930    6.9163 H         1 <0>         0.0791
     50 H17        -1.7660   -6.5179    6.4091 H         1 <0>         0.0911
     51 H18        -2.4876   -5.2641    7.4572 H         1 <0>         0.0826
     52 H19         0.3673   -2.8386    7.5232 H         1 <0>         0.1186
     53 H20         1.3836   -4.1664    6.9139 H         1 <0>         0.1301
     54 H21         2.4951   -3.0085    8.7972 H         1 <0>         0.1155
     55 H22         2.3885   -1.4640    7.9181 H         1 <0>         0.0927
     56 H23         3.8965   -3.9561    7.0011 H         1 <0>         0.0849
     57 H24         4.6277   -2.4543    7.6195 H         1 <0>         0.0982
     58 H25         2.5905   -3.9007    4.8419 H         1 <0>         0.1329
     59 H26         2.4609   -2.3770    3.9310 H         1 <0>         0.1299
     60 H27         2.7188   -0.4820    6.3147 H         1 <0>         0.0626
     61 H28         4.4944   -0.3592    6.3040 H         1 <0>         0.0936
     62 H29         3.5015    0.9428    4.4422 H         1 <0>         0.0765
     63 H30         2.7068   -0.5299    3.8357 H         1 <0>         0.0487
     64 H31         5.7176   -0.1284    4.1382 H         1 <0>         0.0727
     65 H32         4.8135   -0.0835    2.6055 H         1 <0>         0.0683
     66 H33         5.8584   -2.3044    2.9571 H         1 <0>         0.0770
     67 H34         4.0827   -2.4252    2.9684 H         1 <0>         0.0580
     68 H35         5.8718   -2.2585    5.4357 H         1 <0>         0.0867
     69 H36         5.0742   -3.7295    4.8289 H         1 <0>         0.0758
     70 N6          1.2884   -2.4456    5.6748 N.4       1 <0>        -0.3882
     71 H37         1.2683   -1.4260    5.7940 H         1 <0>         0.4458
@<TRIPOS>BOND
     1    1    2 1
     2    1   36 1
     3    1   37 1
     4    1   38 1
     5    2    7 ar
     6    2    3 ar
     7    3    4 ar
     8    3   39 1
     9    4    5 ar
    10    4   40 1
    11    5    6 ar
    12    5   41 1
    13    6   13 1
    14    6    7 ar
    15    7    8 1
    16    8    9 1
    17    8   10 am
    18   10   11 2
    19   10   12 1
    20   12   13 2
    21   12   14 1
    22   13   42 1
    23   14   15 1
    24   14   16 1
    25   14   70 1
    26   16   20 1
    27   16   17 2
    28   17   18 1
    29   18   19 2
    30   19   20 1
    31   20   21 1
    32   21   25 1
    33   21   22 1
    34   21   43 1
    35   22   23 1
    36   22   44 1
    37   22   45 1
    38   23   24 1
    39   23   46 1
    40   23   47 1
    41   24   25 1
    42   24   48 1
    43   24   49 1
    44   25   50 1
    45   25   51 1
    46   26   27 1
    47   26   52 1
    48   26   53 1
    49   26   70 1
    50   27   28 1
    51   27   54 1
    52   27   55 1
    53   28   29 1
    54   28   56 1
    55   28   57 1
    56   29   35 1
    57   29   30 1
    58   29   31 1
    59   30   58 1
    60   30   59 1
    61   30   70 1
    62   31   32 1
    63   31   60 1
    64   31   61 1
    65   32   33 1
    66   32   62 1
    67   32   63 1
    68   33   34 1
    69   33   64 1
    70   33   65 1
    71   34   35 1
    72   34   66 1
    73   34   67 1
    74   35   68 1
    75   35   69 1
    76   70   71 1
@<TRIPOS>MOLECULE
ZINC21237390
   39    41     0     0     0
SMALL
USER_CHARGES
N-[4-[(4-bromo-2-chloro-phenoxy)methyl]-2-oxo-chromen-7-yl]acetamide
@<TRIPOS>ATOM
      1 C1         -2.1933    1.4702    0.6088 C.3       1 <0>        -0.1750
      2 C2         -2.1680   -0.0365    0.6094 C.2       1 <0>         0.5197
      3 O1         -3.0584   -0.6578    1.1499 O.2       1 <0>        -0.5187
      4 N1         -1.1558   -0.6938    0.0094 N.am      1 <0>        -0.6874
      5 C3         -1.0815   -2.0846    0.0912 C.2       1 <0>         0.2460
      6 C4          0.1643   -2.7079    0.1661 C.2       1 <0>        -0.1380
      7 C5          0.2527   -4.0665    0.2530 C.2       1 <0>        -0.0228
      8 C6         -0.9133   -4.8412    0.2543 C.2       1 <0>        -0.1751
      9 C7         -0.8475   -6.3015    0.3408 C.2       1 <0>         0.1313
     10 C8         -2.0139   -6.9978    0.3386 C.2       1 <0>        -0.2525
     11 C9         -3.2416   -6.3093    0.2544 C.2       1 <0>         0.5309
     12 O2         -4.2800   -6.9458    0.2534 O.3       1 <0>        -0.3400
     13 O3         -3.2951   -4.9705    0.1758 O.3       1 <0>        -0.2375
     14 C10        -2.1731   -4.2191    0.1732 C.2       1 <0>         0.1663
     15 C11        -2.2462   -2.8369    0.0919 C.2       1 <0>        -0.1385
     16 C12         0.4782   -7.0126    0.4294 C.3       1 <0>         0.0690
     17 O4          0.2585   -8.4227    0.5022 O.3       1 <0>        -0.2996
     18 C13         1.3596   -9.2153    0.5873 C.ar      1 <0>         0.1437
     19 C14         2.6249   -8.6473    0.6005 C.ar      1 <0>        -0.1890
     20 C15         3.7427   -9.4545    0.6870 C.ar      1 <0>        -0.0421
     21 C16         3.6014  -10.8288    0.7606 C.ar      1 <0>        -0.1101
     22 C17         2.3408  -11.3982    0.7477 C.ar      1 <0>        -0.0410
     23 C18         1.2191  -10.5940    0.6670 C.ar      1 <0>        -0.0573
     24 Cl1        -0.3632  -11.3081    0.6581 Cl        1 <0>        -0.0380
     25 Br1         5.1338  -11.9305    0.8783 Br        1 <0>        -0.0188
     26 H1         -1.3102    1.8515    0.0752 H         1 <0>         0.0871
     27 H2         -2.1822    1.8375    1.6456 H         1 <0>         0.1094
     28 H3         -3.1060    1.8214    0.1052 H         1 <0>         0.1089
     29 H4         -0.3883   -0.1337   -0.5448 H         1 <0>         0.4563
     30 H5          1.0643   -2.1108    0.1600 H         1 <0>         0.1603
     31 H6          1.2198   -4.5434    0.3148 H         1 <0>         0.1599
     32 H7         -2.0010   -8.0759    0.4015 H         1 <0>         0.2034
     33 H8         -3.2071   -2.3479    0.0296 H         1 <0>         0.1738
     34 H9          1.0790   -6.7807   -0.4624 H         1 <0>         0.1227
     35 H10         1.0143   -6.6781    1.3298 H         1 <0>         0.1225
     36 H11         2.7362   -7.5746    0.5434 H         1 <0>         0.1468
     37 H12         4.7280   -9.0122    0.6975 H         1 <0>         0.1490
     38 H13         2.2326  -12.4712    0.8052 H         1 <0>         0.1562
     39 H14        -5.2456   -6.4229    0.1882 H         1 <0>         0.5181
@<TRIPOS>BOND
     1    1    2 1
     2    1   26 1
     3    1   27 1
     4    1   28 1
     5    2    3 2
     6    2    4 am
     7    4    5 2
     8    4   29 1
     9    5   15 1
    10    5    6 1
    11    6    7 2
    12    6   30 1
    13    7    8 1
    14    7   31 1
    15    8   14 1
    16    8    9 2
    17    9   10 1
    18    9   16 1
    19   10   11 2
    20   10   32 1
    21   11   12 1
    22   11   13 1
    23   12   39 1
    24   13   14 1
    25   14   15 2
    26   15   33 1
    27   16   17 1
    28   16   34 1
    29   16   35 1
    30   17   18 1
    31   18   23 ar
    32   18   19 ar
    33   19   20 ar
    34   19   36 1
    35   20   21 ar
    36   20   37 1
    37   21   22 ar
    38   21   25 1
    39   22   23 ar
    40   22   38 1
    41   23   24 1
@<TRIPOS>MOLECULE
ZINC13581156
   42    45     0     0     0
SMALL
USER_CHARGES

@<TRIPOS>ATOM
      1 C1          2.3702    1.4365    0.0095 C.ar      1 <0>         0.0381
      2 C2          1.1274    2.0565    0.0026 C.ar      1 <0>        -0.1720
      3 C3         -0.0146    1.2816   -0.0124 C.ar      1 <0>         0.1476
      4 N1          0.0614   -0.0359   -0.0203 N.ar      1 <0>        -0.5079
      5 C4          1.2269   -0.6641   -0.0137 C.ar      1 <0>         0.4452
      6 C5          2.4183    0.0544    0.0010 C.ar      1 <0>        -0.2018
      7 N2          1.2605   -2.0536   -0.0219 N.pl3     1 <0>        -0.5896
      8 C6          2.5354   -2.7772   -0.1419 C.3       1 <0>         0.1159
      9 C7          2.6145   -3.8138    0.9839 C.3       1 <0>         0.0360
     10 N3          1.4144   -4.6603    0.9511 N.3       1 <0>        -0.5352
     11 C8          0.2003   -3.8736    1.2058 C.3       1 <0>         0.0331
     12 C9          0.0227   -2.8394    0.0952 C.3       1 <0>         0.1037
     13 C10         1.5294   -5.7738    1.9024 C.3       1 <0>         0.1313
     14 C11         0.4053   -6.7504    1.6708 C.2       1 <0>         0.2998
     15 N4         -0.7886   -6.6463    2.1771 N.2       1 <0>        -0.4757
     16 C12        -1.5511   -7.6927    1.7670 C.ar      1 <0>         0.0817
     17 C13        -0.7409   -8.4920    0.9432 C.ar      1 <0>         0.0613
     18 N5          0.4893   -7.8665    0.8970 N.pl3     1 <0>        -0.5800
     19 C14        -1.2586   -9.6460    0.3719 C.ar      1 <0>        -0.0609
     20 C15        -2.5683  -10.0044    0.6154 C.ar      1 <0>        -0.0710
     21 C16        -3.3732   -9.2182    1.4286 C.ar      1 <0>        -0.0658
     22 C17        -2.8762   -8.0700    2.0037 C.ar      1 <0>        -0.0369
     23 Br1        -3.9822   -7.0076    3.1101 Br        1 <0>        -0.0179
     24 Br2        -3.2722  -11.5768   -0.1644 Br        1 <0>        -0.0156
     25 H1          3.2786    2.0206    0.0169 H         1 <0>         0.1743
     26 H2          1.0554    3.1341    0.0093 H         1 <0>         0.1806
     27 H3         -0.9831    1.7596   -0.0175 H         1 <0>         0.2061
     28 H4          3.3678   -0.4603    0.0061 H         1 <0>         0.1783
     29 H5          2.5810   -3.2810   -1.1074 H         1 <0>         0.1041
     30 H6          3.3645   -2.0754   -0.0524 H         1 <0>         0.1073
     31 H7          3.5006   -4.4335    0.8461 H         1 <0>         0.1097
     32 H8          2.6733   -3.3032    1.9451 H         1 <0>         0.0550
     33 H9         -0.6646   -4.5366    1.2289 H         1 <0>         0.1185
     34 H10         0.2926   -3.3621    2.1639 H         1 <0>         0.0539
     35 H11        -0.8085   -2.1787    0.3414 H         1 <0>         0.0830
     36 H12        -0.1778   -3.3493   -0.8470 H         1 <0>         0.1054
     37 H13         2.4847   -6.2783    1.7574 H         1 <0>         0.1090
     38 H14         1.4725   -5.3891    2.9206 H         1 <0>         0.0854
     39 H15        -0.6378  -10.2618   -0.2620 H         1 <0>         0.1440
     40 H16        -4.3970   -9.5094    1.6116 H         1 <0>         0.1534
     41 H17        -0.7567   -0.5569   -0.0309 H         1 <0>         0.4384
     42 H18         1.2695   -8.1681    0.4058 H         1 <0>         0.4303
@<TRIPOS>BOND
     1    1    6 ar
     2    1    2 ar
     3    1   25 1
     4    2    3 ar
     5    2   26 1
     6    3    4 ar
     7    3   27 1
     8    4    5 ar
     9    4   41 1
    10    5    6 ar
    11    5    7 1
    12    6   28 1
    13    7   12 1
    14    7    8 1
    15    8    9 1
    16    8   29 1
    17    8   30 1
    18    9   10 1
    19    9   31 1
    20    9   32 1
    21   10   11 1
    22   10   13 1
    23   11   12 1
    24   11   33 1
    25   11   34 1
    26   12   35 1
    27   12   36 1
    28   13   14 1
    29   13   37 1
    30   13   38 1
    31   14   18 1
    32   14   15 2
    33   15   16 1
    34   16   22 ar
    35   16   17 ar
    36   17   18 1
    37   17   19 ar
    38   18   42 1
    39   19   20 ar
    40   19   39 1
    41   20   21 ar
    42   20   24 1
    43   21   22 ar
    44   21   40 1
    45   22   23 1
@<TRIPOS>MOLECULE
ZINC63373664
   56    60     0     0     0
SMALL
USER_CHARGES

@<TRIPOS>ATOM
      1 C1          0.1272    1.5645    0.5542 C.3       1 <0>        -0.2101
      2 C2          0.0947    0.0401    0.4286 C.3       1 <0>         0.1604
      3 C3          0.4091   -0.2455   -1.0058 C.3       1 <0>         0.1087
      4 H1          0.7915    0.6607   -1.4756 H         1 <0>         0.1861
      5 C4          1.4671   -1.3326   -1.0883 C.2       1 <0>         0.0360
      6 C5          1.0112   -2.2406   -1.9390 C.ar      1 <0>        -0.1351
      7 C6          1.6132   -3.4678   -2.4846 C.ar      1 <0>        -0.0129
      8 C7          0.8418   -4.1835   -3.3450 C.ar      1 <0>        -0.1480
      9 C8         -0.4536   -3.8065   -3.7124 C.ar      1 <0>         0.0492
     10 C9         -1.0842   -2.6917   -3.2643 C.ar      1 <0>        -0.1999
     11 C10        -0.3717   -1.8542   -2.3578 C.ar      1 <0>         0.3413
     12 N1         -0.7174   -0.7527   -1.7885 N.pl3     1 <0>        -0.5305
     13 C11         2.7046   -1.2786   -0.2272 C.3       1 <0>        -0.0022
     14 H2          3.3219   -2.1596   -0.4026 H         1 <0>         0.1432
     15 C12         2.2140   -1.2599    1.2230 C.3       1 <0>         0.1184
     16 N2          1.0332   -0.4417    1.4259 N.am      1 <0>        -0.6134
     17 C13         0.7198   -0.1108    2.7227 C.2       1 <0>         0.5102
     18 O1          1.4720   -0.3581    3.6414 O.2       1 <0>        -0.4658
     19 C14        -0.6094    0.5779    2.9488 C.3       1 <0>         0.0704
     20 N3         -1.6347   -0.0936    2.1289 N.am      1 <0>        -0.5956
     21 C15        -1.3044   -0.3520    0.8273 C.2       1 <0>         0.5241
     22 O2         -2.0829   -0.8605    0.0487 O.2       1 <0>        -0.5168
     23 C16        -2.9404   -0.4644    2.6803 C.3       1 <0>         0.1204
     24 C17        -3.9242    0.6905    2.4826 C.3       1 <0>        -0.1378
     25 C18        -5.2877    0.3032    3.0585 C.3       1 <0>         0.0778
     26 O3         -6.2066    1.3819    2.8737 O.3       1 <0>        -0.5739
     27 C19         3.4903   -0.0281   -0.5271 C.ar      1 <0>        -0.0972
     28 C20         3.1929    1.1497    0.1328 C.ar      1 <0>        -0.1174
     29 C21         3.9136    2.2968   -0.1416 C.ar      1 <0>        -0.0853
     30 C22         4.9325    2.2661   -1.0767 C.ar      1 <0>        -0.0769
     31 C23         5.2297    1.0873   -1.7367 C.ar      1 <0>        -0.0831
     32 C24         4.5119   -0.0605   -1.4578 C.ar      1 <0>        -0.0916
     33 Br1         5.9184    3.8352   -1.4530 Br        1 <0>        -0.0265
     34 H3          0.8426    1.9728   -0.1597 H         1 <0>         0.0949
     35 H4         -0.8640    1.9675    0.3460 H         1 <0>         0.0933
     36 H5          0.4260    1.8395    1.5657 H         1 <0>         0.1024
     37 H6          2.6110   -3.7820   -2.2163 H         1 <0>         0.1704
     38 H7          1.2506   -5.0897   -3.7669 H         1 <0>         0.1567
     39 H8         -0.9883   -4.4456   -4.3996 H         1 <0>         0.1593
     40 H9         -2.0873   -2.4485   -3.5822 H         1 <0>         0.1706
     41 H10         1.9692   -2.2789    1.5225 H         1 <0>         0.0853
     42 H11         3.0198   -0.8951    1.8600 H         1 <0>         0.1203
     43 H12        -0.8816    0.5106    4.0021 H         1 <0>         0.1381
     44 H13        -0.5336    1.6247    2.6544 H         1 <0>         0.1267
     45 H14        -3.3129   -1.3510    2.1672 H         1 <0>         0.0939
     46 H15        -2.8383   -0.6766    3.7446 H         1 <0>         0.0967
     47 H16        -3.5516    1.5771    2.9957 H         1 <0>         0.0781
     48 H17        -4.0262    0.9026    1.4183 H         1 <0>         0.0745
     49 H18        -5.6603   -0.5833    2.5454 H         1 <0>         0.0489
     50 H19        -5.1857    0.0911    4.1227 H         1 <0>         0.0514
     51 H20        -7.0937    1.2059    3.2160 H         1 <0>         0.3888
     52 H21         2.3972    1.1737    0.8626 H         1 <0>         0.1394
     53 H22         3.6810    3.2170    0.3737 H         1 <0>         0.1409
     54 H23         6.0251    1.0629   -2.4668 H         1 <0>         0.1432
     55 H24         4.7466   -0.9819   -1.9701 H         1 <0>         0.1390
     56 H25        -1.5863   -0.3301   -1.8737 H         1 <0>         0.4612
@<TRIPOS>BOND
     1    1    2 1
     2    1   34 1
     3    1   35 1
     4    1   36 1
     5    2   16 1
     6    2   21 1
     7    2    3 1
     8    3    4 1
     9    3   12 1
    10    3    5 1
    11    5    6 2
    12    5   13 1
    13    6   11 ar
    14    6    7 ar
    15    7    8 ar
    16    7   37 1
    17    8    9 ar
    18    8   38 1
    19    9   10 ar
    20    9   39 1
    21   10   11 ar
    22   10   40 1
    23   11   12 2
    24   12   56 1
    25   13   14 1
    26   13   15 1
    27   13   27 1
    28   15   16 1
    29   15   41 1
    30   15   42 1
    31   16   17 am
    32   17   18 2
    33   17   19 1
    34   19   20 1
    35   19   43 1
    36   19   44 1
    37   20   21 am
    38   20   23 1
    39   21   22 2
    40   23   24 1
    41   23   45 1
    42   23   46 1
    43   24   25 1
    44   24   47 1
    45   24   48 1
    46   25   26 1
    47   25   49 1
    48   25   50 1
    49   26   51 1
    50   27   32 ar
    51   27   28 ar
    52   28   29 ar
    53   28   52 1
    54   29   30 ar
    55   29   53 1
    56   30   31 ar
    57   30   33 1
    58   31   32 ar
    59   31   54 1
    60   32   55 1
@<TRIPOS>MOLECULE
ZINC09154896
   40    41     0     0     0
SMALL
USER_CHARGES
2-[2-[allyl-[(5-chloro-2-thienyl)methyl]amino]acetyl]aminothiophene-3-carboxamide
@<TRIPOS>ATOM
      1 C1          5.8420    2.4415   -0.6334 C.2       1 <0>        -0.0999
      2 C2          4.9298    1.5349   -0.3846 C.2       1 <0>        -0.2364
      3 C3          4.1939    0.8746   -1.5219 C.3       1 <0>         0.0209
      4 C4          3.8171   -1.0858   -0.1517 C.3       1 <0>         0.0985
      5 C5          2.3245   -0.8813   -0.1154 C.2       1 <0>        -0.2646
      6 C6          1.3389   -1.7146   -0.5283 C.2       1 <0>        -0.0691
      7 C7          0.0223   -1.3132   -0.3974 C.2       1 <0>        -0.1624
      8 C8         -0.2432   -0.0966    0.1408 C.2       1 <0>        -0.0778
      9 S1          1.3965    0.5220    0.4818 S.3       1 <0>         0.1441
     10 Cl1        -1.7785    0.6645    0.4189 Cl        1 <0>         0.0509
     11 C9          5.7542   -0.9752   -1.6001 C.3       1 <0>        -0.0215
     12 C10         6.1434   -0.8169   -3.0474 C.2       1 <0>         0.4939
     13 O1          5.3059   -0.5156   -3.8711 O.2       1 <0>        -0.4976
     14 N1          7.4223   -1.0103   -3.4263 N.am      1 <0>        -0.5857
     15 C11         7.7805   -0.8646   -4.7579 C.2       1 <0>         0.0792
     16 C12         9.0355   -1.0149   -5.3358 C.2       1 <0>        -0.2262
     17 C13         9.1231   -0.8053   -6.7613 C.2       1 <0>        -0.1143
     18 C14         7.9889   -0.4739   -7.4042 C.2       1 <0>        -0.2107
     19 S2          6.7739   -0.4440   -6.1027 S.3       1 <0>         0.2363
     20 C15        10.2121   -1.3723   -4.5373 C.2       1 <0>         0.5892
     21 O2         10.1036   -1.5452   -3.3374 O.2       1 <0>        -0.5668
     22 N2         11.4138   -1.5095   -5.1319 N.am      1 <0>        -0.8407
     23 H1          6.0668    2.7158   -1.6535 H         1 <0>         0.1113
     24 H2          6.3694    2.9148    0.1817 H         1 <0>         0.1266
     25 H3          4.7051    1.2607    0.6355 H         1 <0>         0.1349
     26 H4          4.6041    1.2216   -2.4703 H         1 <0>         0.1372
     27 H5          3.1360    1.1315   -1.4680 H         1 <0>         0.1370
     28 H6          4.2782   -0.5440    0.6741 H         1 <0>         0.1492
     29 H7          4.0406   -2.1486   -0.0588 H         1 <0>         0.1526
     30 H8          1.5783   -2.6783   -0.9532 H         1 <0>         0.1530
     31 H9         -0.7822   -1.9583   -0.7182 H         1 <0>         0.1580
     32 H10         6.3885   -0.3401   -0.9817 H         1 <0>         0.1692
     33 H11         5.8807   -2.0159   -1.3016 H         1 <0>         0.1711
     34 H12         8.0922   -1.2513   -2.7675 H         1 <0>         0.4407
     35 H13        10.0603   -0.9059   -7.2886 H         1 <0>         0.1490
     36 H14         7.8489   -0.2741   -8.4563 H         1 <0>         0.1978
     37 H15        11.5002   -1.3718   -6.0882 H         1 <0>         0.4055
     38 H16        12.1922   -1.7460   -4.6036 H         1 <0>         0.4104
     39 N3          4.3342   -0.5948   -1.4464 N.4       1 <0>        -0.3824
     40 H17         3.7906   -1.0212   -2.2060 H         1 <0>         0.4398
@<TRIPOS>BOND
     1    1    2 2
     2    1   23 1
     3    1   24 1
     4    2    3 1
     5    2   25 1
     6    3   26 1
     7    3   27 1
     8    3   39 1
     9    4    5 1
    10    4   28 1
    11    4   29 1
    12    4   39 1
    13    5    9 1
    14    5    6 2
    15    6    7 1
    16    6   30 1
    17    7    8 2
    18    7   31 1
    19    8    9 1
    20    8   10 1
    21   11   12 1
    22   11   32 1
    23   11   33 1
    24   11   39 1
    25   12   13 2
    26   12   14 am
    27   14   15 1
    28   14   34 1
    29   15   19 1
    30   15   16 2
    31   16   17 1
    32   16   20 1
    33   17   18 2
    34   17   35 1
    35   18   19 1
    36   18   36 1
    37   20   21 2
    38   20   22 am
    39   22   37 1
    40   22   38 1
    41   39   40 1
@<TRIPOS>MOLECULE
ZINC37725531
   47    47     0     0     0
SMALL
USER_CHARGES

@<TRIPOS>ATOM
      1 C1         -0.0575    1.2237    0.5440 C.3       1 <0>        -0.1743
      2 C2         -0.0474   -0.2814    0.2695 C.3       1 <0>        -0.1482
      3 C3          0.7181   -0.5585   -1.0260 C.3       1 <0>         0.0353
      4 H1          0.2853    0.0283   -1.8363 H         1 <0>         0.1421
      5 C4          0.6223   -2.0470   -1.3666 C.3       1 <0>        -0.0931
      6 C5          1.2704   -2.2991   -2.7035 C.ar      1 <0>        -0.1409
      7 C6          0.5019   -2.3192   -3.8515 C.ar      1 <0>        -0.0385
      8 C7          1.0963   -2.5505   -5.0789 C.ar      1 <0>        -0.1163
      9 C8          2.4613   -2.7622   -5.1598 C.ar      1 <0>        -0.0370
     10 C9          3.2332   -2.7424   -4.0147 C.ar      1 <0>        -0.1898
     11 C10         2.6397   -2.5053   -2.7831 C.ar      1 <0>         0.1191
     12 O1          3.3983   -2.4808   -1.6556 O.3       1 <0>        -0.3102
     13 C11         4.7783   -2.8246   -1.7945 C.3       1 <0>         0.0627
     14 H2          4.8850   -3.5999   -2.5532 H         1 <0>         0.1124
     15 C12         5.5725   -1.5864   -2.2155 C.3       1 <0>        -0.1870
     16 C13         5.3040   -3.3347   -0.4775 C.2       1 <0>         0.5185
     17 O2          4.5691   -3.3977    0.4853 O.2       1 <0>        -0.5206
     18 N1          6.5907   -3.7210   -0.3696 N.am      1 <0>        -0.7147
     19 C14         7.1017   -4.2169    0.9107 C.3       1 <0>         0.1379
     20 C15         6.7957   -5.7106    1.0378 C.3       1 <0>        -0.1681
     21 C16         8.6147   -3.9990    0.9748 C.3       1 <0>        -0.1649
     22 Br1         0.0418   -2.5782   -6.6484 Br        1 <0>        -0.0212
     23 N2          2.1282   -0.1860   -0.8506 N.4       1 <0>        -0.6350
     24 H3          0.9672    1.5816    0.6439 H         1 <0>         0.0512
     25 H4         -0.5439    1.7407   -0.2831 H         1 <0>         0.0725
     26 H5         -0.6028    1.4210    1.4669 H         1 <0>         0.0844
     27 H6          0.4390   -0.7984    1.0966 H         1 <0>         0.0917
     28 H7         -1.0721   -0.6394    0.1696 H         1 <0>         0.1140
     29 H8          1.1334   -2.6289   -0.5996 H         1 <0>         0.1093
     30 H9         -0.4258   -2.3432   -1.4093 H         1 <0>         0.1231
     31 H10        -0.5638   -2.1546   -3.7905 H         1 <0>         0.1496
     32 H11         2.9233   -2.9433   -6.1190 H         1 <0>         0.1467
     33 H12         4.2985   -2.9080   -4.0782 H         1 <0>         0.1469
     34 H13         6.6252   -1.8486   -2.3215 H         1 <0>         0.0933
     35 H14         5.1923   -1.2174   -3.1681 H         1 <0>         0.0824
     36 H15         5.4658   -0.8111   -1.4568 H         1 <0>         0.0739
     37 H16         7.1784   -3.6706   -1.1396 H         1 <0>         0.4034
     38 H17         6.6220   -3.6770    1.7271 H         1 <0>         0.0919
     39 H18         7.2754   -6.2505    0.2215 H         1 <0>         0.0603
     40 H19         7.1759   -6.0796    1.9904 H         1 <0>         0.0734
     41 H20         5.7177   -5.8658    0.9922 H         1 <0>         0.0601
     42 H21         8.8327   -2.9349    0.8842 H         1 <0>         0.0635
     43 H22         8.9949   -4.3680    1.9273 H         1 <0>         0.0804
     44 H23         9.0945   -4.5389    0.1584 H         1 <0>         0.0649
     45 H24         2.6331   -0.3687   -1.7049 H         1 <0>         0.4277
     46 H25         2.1914    0.7956   -0.6260 H         1 <0>         0.4298
     47 H26         2.5288   -0.7291   -0.1005 H         1 <0>         0.4374
@<TRIPOS>BOND
     1    1    2 1
     2    1   24 1
     3    1   25 1
     4    1   26 1
     5    2    3 1
     6    2   27 1
     7    2   28 1
     8    3    4 1
     9    3    5 1
    10    3   23 1
    11    5    6 1
    12    5   29 1
    13    5   30 1
    14    6   11 ar
    15    6    7 ar
    16    7    8 ar
    17    7   31 1
    18    8    9 ar
    19    8   22 1
    20    9   10 ar
    21    9   32 1
    22   10   11 ar
    23   10   33 1
    24   11   12 1
    25   12   13 1
    26   13   14 1
    27   13   15 1
    28   13   16 1
    29   15   34 1
    30   15   35 1
    31   15   36 1
    32   16   17 2
    33   16   18 am
    34   18   19 1
    35   18   37 1
    36   19   20 1
    37   19   21 1
    38   19   38 1
    39   20   39 1
    40   20   40 1
    41   20   41 1
    42   21   42 1
    43   21   43 1
    44   21   44 1
    45   23   45 1
    46   23   46 1
    47   23   47 1
@<TRIPOS>MOLECULE
ZINC42691810
   48    48     0     0     0
SMALL
USER_CHARGES

@<TRIPOS>ATOM
      1 C1         -0.8935   -3.7306    3.3485 C.3       1 <0>        -0.1514
      2 C2         -1.3190   -2.9232    2.1205 C.3       1 <0>        -0.1214
      3 C3         -2.0286   -1.6449    2.5713 C.3       1 <0>        -0.1666
      4 C4         -0.0823   -2.5569    1.2974 C.3       1 <0>         0.1431
      5 N1         -0.5000   -1.9267    0.0425 N.pl3     1 <0>        -0.6569
      6 C5         -0.6587   -0.4721   -0.0294 C.3       1 <0>         0.1102
      7 C6          0.6805    0.1669   -0.2923 C.2       1 <0>         0.4854
      8 O1          1.6536   -0.5271   -0.4980 O.2       1 <0>        -0.5140
      9 N2          0.7968    1.5096   -0.2989 N.am      1 <0>        -0.8552
     10 C7         -0.7469   -2.7128   -1.0853 C.ar      1 <0>         0.1999
     11 C8          0.3094   -3.1459   -1.8766 C.ar      1 <0>        -0.0852
     12 C9          0.0616   -3.9238   -2.9914 C.ar      1 <0>        -0.0570
     13 C10        -1.2374   -4.2707   -3.3196 C.ar      1 <0>        -0.0907
     14 C11        -2.2904   -3.8409   -2.5337 C.ar      1 <0>        -0.0790
     15 C12        -2.0487   -3.0678   -1.4148 C.ar      1 <0>        -0.1620
     16 C13        -3.1970   -2.6051   -0.5555 C.3       1 <0>         0.0286
     17 N3         -3.6248   -1.2681   -0.9882 N.4       1 <0>        -0.5114
     18 C14        -4.8406   -0.8830   -0.2592 C.3       1 <0>         0.0200
     19 C15        -4.5173   -0.7342    1.2289 C.3       1 <0>        -0.1966
     20 C16        -5.3616    0.4485   -0.8036 C.3       1 <0>        -0.1849
     21 Br1         1.4984   -4.5144   -4.0697 Br        1 <0>        -0.0161
     22 H1         -1.7745   -3.9915    3.9348 H         1 <0>         0.0623
     23 H2         -0.3880   -4.6413    3.0273 H         1 <0>         0.0613
     24 H3         -0.2149   -3.1341    3.9582 H         1 <0>         0.0620
     25 H4         -1.9976   -3.5197    1.5107 H         1 <0>         0.0708
     26 H5         -2.9522   -1.9051    3.0883 H         1 <0>         0.0654
     27 H6         -1.3790   -1.0875    3.2463 H         1 <0>         0.0683
     28 H7         -2.2599   -1.0313    1.7006 H         1 <0>         0.0476
     29 H8          0.5384   -1.8625    1.8637 H         1 <0>         0.0796
     30 H9          0.4887   -3.4591    1.0784 H         1 <0>         0.0787
     31 H10        -1.3460   -0.2211   -0.8373 H         1 <0>         0.0734
     32 H11        -1.0582   -0.1031    0.9152 H         1 <0>         0.1115
     33 H12         0.0185    2.0647   -0.1345 H         1 <0>         0.4000
     34 H13         1.6588    1.9210   -0.4682 H         1 <0>         0.4093
     35 H14         1.3231   -2.8748   -1.6211 H         1 <0>         0.1534
     36 H15        -1.4289   -4.8782   -4.1918 H         1 <0>         0.1470
     37 H16        -3.3029   -4.1134   -2.7926 H         1 <0>         0.1436
     38 H17        -4.0289   -3.3025   -0.6544 H         1 <0>         0.1407
     39 H18        -2.8783   -2.5652    0.4861 H         1 <0>         0.1511
     40 H19        -2.8919   -0.6018   -0.7957 H         1 <0>         0.4120
     41 H20        -5.6018   -1.6520   -0.3905 H         1 <0>         0.1427
     42 H21        -3.7621    0.0405    1.3609 H         1 <0>         0.0823
     43 H22        -5.4213   -0.4566    1.7710 H         1 <0>         0.1097
     44 H23        -4.1384   -1.6806    1.6148 H         1 <0>         0.0890
     45 H24        -5.5918    0.3425   -1.8637 H         1 <0>         0.0830
     46 H25        -6.2637    0.7342   -0.2626 H         1 <0>         0.1096
     47 H26        -4.6003    1.2175   -0.6723 H         1 <0>         0.0799
     48 H27        -3.8163   -1.2805   -1.9788 H         1 <0>         0.4267
@<TRIPOS>BOND
     1    1    2 1
     2    1   22 1
     3    1   23 1
     4    1   24 1
     5    2    3 1
     6    2    4 1
     7    2   25 1
     8    3   26 1
     9    3   27 1
    10    3   28 1
    11    4    5 1
    12    4   29 1
    13    4   30 1
    14    5    6 1
    15    5   10 1
    16    6    7 1
    17    6   31 1
    18    6   32 1
    19    7    8 2
    20    7    9 am
    21    9   33 1
    22    9   34 1
    23   10   15 ar
    24   10   11 ar
    25   11   12 ar
    26   11   35 1
    27   12   13 ar
    28   12   21 1
    29   13   14 ar
    30   13   36 1
    31   14   15 ar
    32   14   37 1
    33   15   16 1
    34   16   17 1
    35   16   38 1
    36   16   39 1
    37   17   18 1
    38   17   40 1
    39   17   48 1
    40   18   19 1
    41   18   20 1
    42   18   41 1
    43   19   42 1
    44   19   43 1
    45   19   44 1
    46   20   45 1
    47   20   46 1
    48   20   47 1
@<TRIPOS>MOLECULE
ZINC53069309
   43    44     0     0     0
SMALL
USER_CHARGES

@<TRIPOS>ATOM
      1 C1         -0.0167    1.3828    0.0096 C.ar      1 <0>        -0.1267
      2 C2          1.1706    2.0896    0.0021 C.ar      1 <0>        -0.0542
      3 C3          2.3781    1.4152   -0.0135 C.ar      1 <0>        -0.0629
      4 C4          2.3996    0.0303   -0.0216 C.ar      1 <0>         0.0067
      5 C5          1.2136   -0.6797   -0.0141 C.ar      1 <0>        -0.1929
      6 C6          0.0021   -0.0041    0.0020 C.ar      1 <0>         0.1378
      7 O1         -1.1652   -0.7004    0.0094 O.3       1 <0>        -0.2923
      8 C7         -1.0702   -2.1262    0.0009 C.3       1 <0>         0.0250
      9 C8         -2.4755   -2.7310    0.0110 C.3       1 <0>         0.0891
     10 H1         -3.0342   -2.3378    0.8603 H         1 <0>         0.1378
     11 C9         -2.3747   -4.2533    0.1276 C.3       1 <0>        -0.0545
     12 N1         -3.7240   -4.8340    0.1374 N.4       1 <0>        -0.4912
     13 C10        -3.6272   -6.2956    0.2493 C.3       1 <0>         0.0468
     14 C11        -2.9020   -6.8715   -0.9795 C.3       1 <0>        -0.1296
     15 C12        -3.8975   -7.8250   -1.6720 C.3       1 <0>        -0.1247
     16 C13        -5.2884   -7.3198   -1.2144 C.3       1 <0>        -0.1345
     17 C14        -5.0382   -6.9192    0.2608 C.3       1 <0>        -0.1315
     18 C15        -2.8764   -6.6743    1.5275 C.3       1 <0>         0.0695
     19 O2         -2.7891   -8.0973    1.6247 O.3       1 <0>        -0.5498
     20 O3         -3.1497   -2.3898   -1.2018 O.3       1 <0>        -0.5417
     21 Cl1         3.9163   -0.8140   -0.0418 Cl        1 <0>        -0.0338
     22 Cl2         3.8684    2.3054   -0.0235 Cl        1 <0>        -0.0344
     23 H2         -0.9591    1.9102    0.0260 H         1 <0>         0.1508
     24 H3          1.1558    3.1695    0.0080 H         1 <0>         0.1563
     25 H4          1.2301   -1.7596   -0.0211 H         1 <0>         0.1433
     26 H5         -0.5418   -2.4497   -0.8960 H         1 <0>         0.0809
     27 H6         -0.5248   -2.4593    0.8839 H         1 <0>         0.0853
     28 H7         -1.8160   -4.6465   -0.7217 H         1 <0>         0.1433
     29 H8         -1.8604   -4.5135    1.0527 H         1 <0>         0.1478
     30 H9         -4.2412   -4.4700    0.9236 H         1 <0>         0.4296
     31 H10        -2.6219   -6.0665   -1.6590 H         1 <0>         0.0805
     32 H11        -2.0148   -7.4215   -0.6657 H         1 <0>         0.1072
     33 H12        -3.8033   -7.7537   -2.7556 H         1 <0>         0.0845
     34 H13        -3.7364   -8.8509   -1.3408 H         1 <0>         0.0869
     35 H14        -5.5980   -6.4556   -1.8021 H         1 <0>         0.0741
     36 H15        -6.0290   -8.1169   -1.2779 H         1 <0>         0.0924
     37 H16        -5.0612   -7.7988    0.9041 H         1 <0>         0.1203
     38 H17        -5.7763   -6.1869    0.5877 H         1 <0>         0.0872
     39 H18        -1.8729   -6.2498    1.4987 H         1 <0>         0.0674
     40 H19        -3.4116   -6.2832    2.3927 H         1 <0>         0.0699
     41 H20        -2.3243   -8.4100    2.4129 H         1 <0>         0.4062
     42 H21        -2.7077   -2.7085   -2.0006 H         1 <0>         0.3909
     43 H22        -4.2001   -4.5931   -0.7190 H         1 <0>         0.4372
@<TRIPOS>BOND
     1    1    6 ar
     2    1    2 ar
     3    1   23 1
     4    2    3 ar
     5    2   24 1
     6    3    4 ar
     7    3   22 1
     8    4    5 ar
     9    4   21 1
    10    5    6 ar
    11    5   25 1
    12    6    7 1
    13    7    8 1
    14    8    9 1
    15    8   26 1
    16    8   27 1
    17    9   10 1
    18    9   11 1
    19    9   20 1
    20   11   12 1
    21   11   28 1
    22   11   29 1
    23   12   13 1
    24   12   30 1
    25   12   43 1
    26   13   17 1
    27   13   14 1
    28   13   18 1
    29   14   15 1
    30   14   31 1
    31   14   32 1
    32   15   16 1
    33   15   33 1
    34   15   34 1
    35   16   17 1
    36   16   35 1
    37   16   36 1
    38   17   37 1
    39   17   38 1
    40   18   19 1
    41   18   39 1
    42   18   40 1
    43   19   41 1
    44   20   42 1
@<TRIPOS>MOLECULE
ZINC66925377
   55    58     0     0     0
SMALL
USER_CHARGES

@<TRIPOS>ATOM
      1 C1          3.6347   -4.7974   -1.1587 C.ar      1 <0>        -0.1047
      2 C2          3.6045   -3.7971   -2.1127 C.ar      1 <0>        -0.1218
      3 C3          3.6430   -2.4753   -1.7205 C.ar      1 <0>        -0.1149
      4 C4          3.7142   -2.1401   -0.3742 C.ar      1 <0>        -0.1173
      5 C5          3.7493   -3.1362    0.5754 C.ar      1 <0>        -0.0520
      6 C6          3.7060   -4.4667    0.1785 C.ar      1 <0>        -0.1226
      7 C7          3.8426   -2.8468    2.0507 C.3       1 <0>        -0.0881
      8 C8          3.4510   -1.3992    2.3401 C.3       1 <0>        -0.1182
      9 C9          4.2567   -0.4846    1.4101 C.3       1 <0>        -0.1047
     10 C10         3.7459   -0.6773   -0.0163 C.3       1 <0>         0.1723
     11 C11         4.6706    0.0597   -0.9872 C.3       1 <0>         0.1127
     12 N1          4.7329    1.4770   -0.6216 N.am      1 <0>        -0.7297
     13 C12         5.4181    2.3429   -1.3944 C.2       1 <0>         0.7081
     14 O1          5.9846    1.9477   -2.3950 O.2       1 <0>        -0.5801
     15 N2          5.4754    3.6467   -1.0580 N.am      1 <0>        -0.7479
     16 C13         6.2202    4.5879   -1.8980 C.3       1 <0>         0.1158
     17 C14         6.1269    5.9919   -1.2972 C.3       1 <0>        -0.0223
     18 N3          6.8737    6.9356   -2.1395 N.4       1 <0>        -0.3796
     19 C15         6.9087    8.2482   -1.4807 C.3       1 <0>         0.0017
     20 C16         7.9538    9.1306   -2.1852 C.3       1 <0>        -0.0598
     21 C17         7.7227    9.0145   -3.6565 C.2       1 <0>        -0.1967
     22 C18         6.9472    8.0851   -4.2829 C.2       1 <0>        -0.1537
     23 C19         6.8726    8.1713   -5.6708 C.2       1 <0>        -0.1543
     24 C20         7.5534    9.1405   -6.3264 C.2       1 <0>        -0.1486
     25 S1          8.3544   10.0031   -4.9815 S.3       1 <0>         0.1427
     26 C21         6.2251    7.0282   -3.4530 C.3       1 <0>         0.0602
     27 O2          2.4269   -0.1377   -0.1215 O.3       1 <0>        -0.5465
     28 H1          3.5981   -5.8341   -1.4593 H         1 <0>         0.1268
     29 H2          3.5515   -4.0498   -3.1614 H         1 <0>         0.1259
     30 H3          3.6178   -1.6944   -2.4661 H         1 <0>         0.1213
     31 H4          3.7286   -5.2486    0.9231 H         1 <0>         0.1258
     32 H5          3.1725   -3.5154    2.5911 H         1 <0>         0.0805
     33 H6          4.8658   -3.0162    2.3861 H         1 <0>         0.0799
     34 H7          2.3853   -1.2634    2.1555 H         1 <0>         0.0773
     35 H8          3.6777   -1.1583    3.3787 H         1 <0>         0.0726
     36 H9          4.1227    0.5545    1.7108 H         1 <0>         0.0720
     37 H10         5.3131   -0.7485    1.4606 H         1 <0>         0.0818
     38 H11         5.6698   -0.3728   -0.9365 H         1 <0>         0.0805
     39 H12         4.2838   -0.0371   -2.0017 H         1 <0>         0.0784
     40 H13         4.2809    1.7922    0.1767 H         1 <0>         0.4029
     41 H14         5.0234    3.9619   -0.2597 H         1 <0>         0.4038
     42 H15         7.2654    4.2824   -1.9472 H         1 <0>         0.0893
     43 H16         5.7957    4.5933   -2.9020 H         1 <0>         0.0886
     44 H17         5.0817    6.2973   -1.2481 H         1 <0>         0.1398
     45 H18         6.5514    5.9864   -0.2933 H         1 <0>         0.1423
     46 H19         5.9276    8.7180   -1.5504 H         1 <0>         0.1363
     47 H20         7.1824    8.1238   -0.4330 H         1 <0>         0.1442
     48 H21         7.8337   10.1678   -1.8724 H         1 <0>         0.1300
     49 H22         8.9574    8.7831   -1.9397 H         1 <0>         0.1124
     50 H23         6.2720    7.4646   -6.2242 H         1 <0>         0.1445
     51 H24         7.6004    9.3405   -7.3867 H         1 <0>         0.2001
     52 H25         6.2835    6.0641   -3.9582 H         1 <0>         0.1431
     53 H26         5.1810    7.3139   -3.3257 H         1 <0>         0.1410
     54 H27         2.0423   -0.2088   -1.0058 H         1 <0>         0.3800
     55 H28         7.8175    6.5992   -2.2583 H         1 <0>         0.4287
@<TRIPOS>BOND
     1    1    6 ar
     2    1    2 ar
     3    1   28 1
     4    2    3 ar
     5    2   29 1
     6    3    4 ar
     7    3   30 1
     8    4   10 1
     9    4    5 ar
    10    5    6 ar
    11    5    7 1
    12    6   31 1
    13    7    8 1
    14    7   32 1
    15    7   33 1
    16    8    9 1
    17    8   34 1
    18    8   35 1
    19    9   10 1
    20    9   36 1
    21    9   37 1
    22   10   11 1
    23   10   27 1
    24   11   12 1
    25   11   38 1
    26   11   39 1
    27   12   13 am
    28   12   40 1
    29   13   14 2
    30   13   15 am
    31   15   16 1
    32   15   41 1
    33   16   17 1
    34   16   42 1
    35   16   43 1
    36   17   18 1
    37   17   44 1
    38   17   45 1
    39   18   26 1
    40   18   19 1
    41   18   55 1
    42   19   20 1
    43   19   46 1
    44   19   47 1
    45   20   21 1
    46   20   48 1
    47   20   49 1
    48   21   25 1
    49   21   22 2
    50   22   23 1
    51   22   26 1
    52   23   24 2
    53   23   50 1
    54   24   25 1
    55   24   51 1
    56   26   52 1
    57   26   53 1
    58   27   54 1
@<TRIPOS>MOLECULE
ZINC05818913
   42    42     0     0     0
SMALL
USER_CHARGES
1-[4-amino-3-chloro-5-(trifluoromethyl)phenyl]-2-(1,1-dimethylpropylamino)ethanol
@<TRIPOS>ATOM
      1 C1          2.0421    1.4192   -6.1717 C.3       1 <0>        -0.1593
      2 C2          1.3162    1.8336   -4.8902 C.3       1 <0>        -0.1392
      3 C3          2.0545    1.2618   -3.6782 C.3       1 <0>         0.0585
      4 C4          3.4856    1.8022   -3.6512 C.3       1 <0>        -0.1803
      5 C5          2.0875   -0.2648   -3.7747 C.3       1 <0>        -0.1797
      6 C6          2.0397    1.1274   -1.2607 C.3       1 <0>        -0.0489
      7 C7          1.2864    1.5618   -0.0018 C.3       1 <0>         0.1475
      8 H1          1.1856    2.6471    0.0050 H         1 <0>         0.1328
      9 C8          2.0519    1.1207    1.2190 C.ar      1 <0>        -0.1985
     10 C9          2.8501    2.0243    1.8964 C.ar      1 <0>         0.0060
     11 C10         3.5495    1.6251    3.0185 C.ar      1 <0>        -0.2542
     12 C11         3.4587    0.3118    3.4611 C.ar      1 <0>         0.2994
     13 C12         2.6598   -0.5955    2.7752 C.ar      1 <0>        -0.1180
     14 C13         1.9590   -0.1879    1.6559 C.ar      1 <0>        -0.0148
     15 Cl1         2.5420   -2.2382    3.3241 Cl        1 <0>        -0.0368
     16 N1          4.1685   -0.0963    4.5936 N.pl3     1 <0>        -0.8455
     17 C14         4.4148    2.6123    3.7587 C.3       1 <0>         0.5138
     18 F1          4.3444    3.8589    3.1278 F         1 <0>        -0.1711
     19 F2          3.9635    2.7309    5.0776 F         1 <0>        -0.1714
     20 F3          5.7398    2.1634    3.7579 F         1 <0>        -0.1730
     21 O1         -0.0110    0.9628    0.0073 O.3       1 <0>        -0.5451
     22 H2          3.0616    1.8042   -6.1524 H         1 <0>         0.0694
     23 H3          2.0656    0.3316   -6.2404 H         1 <0>         0.0692
     24 H4          1.5161    1.8265   -7.0351 H         1 <0>         0.0771
     25 H5          0.2966    1.4486   -4.9094 H         1 <0>         0.0876
     26 H6          1.2926    2.9212   -4.8214 H         1 <0>         0.0876
     27 H7          4.0116    1.3949   -2.7878 H         1 <0>         0.0810
     28 H8          4.0027    1.5070   -4.5642 H         1 <0>         0.1082
     29 H9          3.4621    2.8898   -3.5825 H         1 <0>         0.0829
     30 H10         1.0679   -0.6497   -3.7939 H         1 <0>         0.0825
     31 H11         2.6046   -0.5600   -4.6876 H         1 <0>         0.1083
     32 H12         2.6135   -0.6721   -2.9112 H         1 <0>         0.0802
     33 H13         3.0592    1.5115   -1.2247 H         1 <0>         0.1457
     34 H14         2.0631    0.0389   -1.3127 H         1 <0>         0.1377
     35 H15         2.9238    3.0444    1.5497 H         1 <0>         0.1490
     36 H16         1.3379   -0.8920    1.1222 H         1 <0>         0.1416
     37 H17         4.1040   -1.0138    4.9019 H         1 <0>         0.4156
     38 H18         4.7257    0.5378    5.0714 H         1 <0>         0.4106
     39 H19         0.0021   -0.0041    0.0020 H         1 <0>         0.3879
     40 N2          1.3486    1.6657   -2.4475 N.4       1 <0>        -0.5105
     41 H20         0.3882    1.3035   -2.4735 H         1 <0>         0.4347
     42 H21         1.3264    2.6906   -2.3907 H         1 <0>         0.4312
@<TRIPOS>BOND
     1    1    2 1
     2    1   22 1
     3    1   23 1
     4    1   24 1
     5    2    3 1
     6    2   25 1
     7    2   26 1
     8    3    4 1
     9    3    5 1
    10    3   40 1
    11    4   27 1
    12    4   28 1
    13    4   29 1
    14    5   30 1
    15    5   31 1
    16    5   32 1
    17    6    7 1
    18    6   33 1
    19    6   34 1
    20    6   40 1
    21    7    8 1
    22    7    9 1
    23    7   21 1
    24    9   14 ar
    25    9   10 ar
    26   10   11 ar
    27   10   35 1
    28   11   12 ar
    29   11   17 1
    30   12   13 ar
    31   12   16 1
    32   13   14 ar
    33   13   15 1
    34   14   36 1
    35   16   37 1
    36   16   38 1
    37   17   18 1
    38   17   19 1
    39   17   20 1
    40   21   39 1
    41   40   41 1
    42   40   42 1
@<TRIPOS>MOLECULE
ZINC35868082
   54    54     0     0     0
SMALL
USER_CHARGES

@<TRIPOS>ATOM
      1 C1          0.1127    2.7518    1.4840 C.3       1 <0>        -0.1536
      2 C2          0.1777    1.5258    0.5711 C.3       1 <0>        -0.1349
      3 C3         -1.2393    1.1187    0.1621 C.3       1 <0>         0.1575
      4 H1         -1.7458    1.9712   -0.2905 H         1 <0>         0.0926
      5 C4         -1.1688   -0.0280   -0.8484 C.3       1 <0>        -0.1671
      6 N1         -1.9826    0.6812    1.3462 N.am      1 <0>        -0.7258
      7 C5         -3.3282    0.7557    1.3627 C.2       1 <0>         0.7015
      8 O1         -3.9253    1.1862    0.3946 O.2       1 <0>        -0.5716
      9 N2         -4.0121    0.3532    2.4521 N.am      1 <0>        -0.6632
     10 C6         -5.4117    0.5344    2.5143 C.2       1 <0>        -0.0168
     11 C7         -6.1088    1.2454    3.4986 C.2       1 <0>         0.2454
     12 N3         -7.3869    1.1935    3.2200 N.pl3     1 <0>        -0.3876
     13 N4         -7.5560    0.4473    2.0469 N.pl3     1 <0>        -0.3541
     14 C8         -6.3255    0.0528    1.6224 C.2       1 <0>         0.4931
     15 N5         -6.0486   -0.7076    0.4855 N.pl3     1 <0>        -0.7882
     16 C9         -8.8314    0.1487    1.3909 C.3       1 <0>         0.1636
     17 C10        -9.9746    0.7819    2.1864 C.3       1 <0>        -0.1754
     18 C11        -8.8207    0.7193   -0.0287 C.3       1 <0>        -0.1723
     19 C12        -9.0309   -1.3670    1.3297 C.3       1 <0>        -0.1713
     20 C13        -5.4922    1.9510    4.6789 C.3       1 <0>        -0.0139
     21 C14        -6.5942    2.6060    5.5142 C.3       1 <0>        -0.1707
     22 C15        -4.7339    0.9383    5.5393 C.3       1 <0>        -0.1440
     23 C16        -4.5227    3.0250    4.1816 C.3       1 <0>        -0.1441
     24 H2          1.1222    3.0418    1.7754 H         1 <0>         0.0609
     25 H3         -0.3629    3.5760    0.9523 H         1 <0>         0.0564
     26 H4         -0.4676    2.5111    2.3748 H         1 <0>         0.0518
     27 H5          0.7580    1.7665   -0.3197 H         1 <0>         0.0854
     28 H6          0.6533    0.7017    1.1028 H         1 <0>         0.0710
     29 H7         -2.1783   -0.3180   -1.1398 H         1 <0>         0.0587
     30 H8         -0.6158    0.2976   -1.7294 H         1 <0>         0.0719
     31 H9         -0.6623   -0.8804   -0.3959 H         1 <0>         0.0594
     32 H10        -1.5064    0.3378    2.1183 H         1 <0>         0.4004
     33 H11        -3.5433   -0.0610    3.1934 H         1 <0>         0.4133
     34 H12        -5.1465   -1.0240    0.3215 H         1 <0>         0.4364
     35 H13        -6.7583   -0.9198   -0.1408 H         1 <0>         0.4170
     36 H14        -9.8325    1.8617    2.2300 H         1 <0>         0.0760
     37 H15       -10.9236    0.5597    1.6983 H         1 <0>         0.1098
     38 H16        -9.9823    0.3753    3.1978 H         1 <0>         0.0762
     39 H17        -8.0062    0.2682   -0.5955 H         1 <0>         0.0695
     40 H18        -9.7696    0.4972   -0.5168 H         1 <0>         0.1066
     41 H19        -8.6785    1.7992    0.0149 H         1 <0>         0.0798
     42 H20        -9.0385   -1.7736    2.3410 H         1 <0>         0.0790
     43 H21        -9.9798   -1.5892    0.8416 H         1 <0>         0.1061
     44 H22        -8.2164   -1.8181    0.7629 H         1 <0>         0.0706
     45 H23        -7.2849    1.8409    5.8685 H         1 <0>         0.0672
     46 H24        -6.1482    3.1163    6.3679 H         1 <0>         0.0950
     47 H25        -7.1344    3.3275    4.9012 H         1 <0>         0.0670
     48 H26        -3.9488    0.4717    4.9443 H         1 <0>         0.0645
     49 H27        -4.2879    1.4487    6.3930 H         1 <0>         0.0899
     50 H28        -5.4246    0.1732    5.8936 H         1 <0>         0.0693
     51 H29        -5.0629    3.7465    3.5686 H         1 <0>         0.0660
     52 H30        -4.0767    3.5354    5.0353 H         1 <0>         0.0865
     53 H31        -3.7376    2.5584    3.5865 H         1 <0>         0.0703
     54 H32        -8.0971    1.6028    3.7386 H         1 <0>         0.4691
@<TRIPOS>BOND
     1    1    2 1
     2    1   24 1
     3    1   25 1
     4    1   26 1
     5    2    3 1
     6    2   27 1
     7    2   28 1
     8    3    4 1
     9    3    5 1
    10    3    6 1
    11    5   29 1
    12    5   30 1
    13    5   31 1
    14    6    7 am
    15    6   32 1
    16    7    8 2
    17    7    9 am
    18    9   10 1
    19    9   33 1
    20   10   14 2
    21   10   11 1
    22   11   12 2
    23   11   20 1
    24   12   13 1
    25   12   54 1
    26   13   14 1
    27   13   16 1
    28   14   15 1
    29   15   34 1
    30   15   35 1
    31   16   17 1
    32   16   18 1
    33   16   19 1
    34   17   36 1
    35   17   37 1
    36   17   38 1
    37   18   39 1
    38   18   40 1
    39   18   41 1
    40   19   42 1
    41   19   43 1
    42   19   44 1
    43   20   21 1
    44   20   22 1
    45   20   23 1
    46   21   45 1
    47   21   46 1
    48   21   47 1
    49   22   48 1
    50   22   49 1
    51   22   50 1
    52   23   51 1
    53   23   52 1
    54   23   53 1
@<TRIPOS>MOLECULE
ZINC40824975
   50    52     0     0     0
SMALL
USER_CHARGES

@<TRIPOS>ATOM
      1 C1          0.3956    1.1221   -0.0868 C.3       1 <0>        -0.1688
      2 C2          0.1900   -0.3932   -0.1364 C.3       1 <0>         0.0905
      3 N1         -1.2397   -0.6957   -0.0328 N.am      1 <0>        -0.5386
      4 C3         -2.0137   -0.8205   -1.1906 C.ar      1 <0>         0.1433
      5 C4         -1.4035   -0.8263   -2.4384 C.ar      1 <0>        -0.1544
      6 C5         -2.1709   -0.9497   -3.5800 C.ar      1 <0>        -0.0946
      7 C6         -3.5452   -1.0675   -3.4818 C.ar      1 <0>        -0.1371
      8 C7         -4.1558   -1.0616   -2.2411 C.ar      1 <0>        -0.0962
      9 C8         -3.3938   -0.9447   -1.0952 C.ar      1 <0>        -0.1576
     10 C9         -1.8090   -0.8536    1.1786 C.2       1 <0>         0.6025
     11 O1         -2.9667   -1.2190    1.2640 O.2       1 <0>        -0.4895
     12 C10        -1.0332   -0.5849    2.3943 C.2       1 <0>        -0.0849
     13 C11        -1.4497   -0.8188    3.6754 C.2       1 <0>        -0.0281
     14 C12        -0.3982   -0.4175    4.5082 C.2       1 <0>        -0.1888
     15 C13         0.6139    0.0456    3.7013 C.2       1 <0>         0.0930
     16 O2          0.2166   -0.0697    2.4360 O.3       1 <0>        -0.1288
     17 C14         1.9184    0.5729    4.2426 C.3       1 <0>        -0.0559
     18 C15         1.7332    0.9834    5.7059 C.3       1 <0>        -0.1113
     19 C16         1.1253   -0.1659    6.5168 C.3       1 <0>        -0.1290
     20 C17        -0.2736   -0.4377    5.9831 C.2       1 <0>         0.2574
     21 N2         -1.2831   -0.6698    6.7636 N.2       1 <0>        -0.2839
     22 N3         -1.1069   -0.6768    8.1534 N.pl3     1 <0>        -0.5592
     23 C18        -2.1726   -0.9217    8.9773 C.cat     1 <0>         0.7718
     24 N4         -2.0050   -0.9284   10.2994 N.pl3     1 <0>        -0.7941
     25 N5         -3.3775   -1.1535    8.4572 N.pl3     1 <0>        -0.7749
     26 C19        -2.7749   -1.3935    4.1050 C.3       1 <0>        -0.1004
     27 H1          1.4594    1.3471   -0.1639 H         1 <0>         0.0769
     28 H2         -0.1355    1.5882   -0.9167 H         1 <0>         0.0646
     29 H3          0.0095    1.5105    0.8556 H         1 <0>         0.0595
     30 H4          0.5761   -0.7816   -1.0788 H         1 <0>         0.0973
     31 H5          0.7211   -0.8593    0.6935 H         1 <0>         0.0927
     32 H6         -0.3303   -0.7340   -2.5158 H         1 <0>         0.1272
     33 H7         -1.6971   -0.9539   -4.5505 H         1 <0>         0.1285
     34 H8         -4.1430   -1.1639   -4.3761 H         1 <0>         0.1249
     35 H9         -5.2295   -1.1530   -2.1678 H         1 <0>         0.1273
     36 H10        -3.8708   -0.9454   -0.1263 H         1 <0>         0.1710
     37 H11         2.6800   -0.2041    4.1766 H         1 <0>         0.1128
     38 H12         2.2307    1.4389    3.6588 H         1 <0>         0.1106
     39 H13         2.7016    1.2492    6.1297 H         1 <0>         0.1047
     40 H14         1.0708    1.8476    5.7554 H         1 <0>         0.0809
     41 H15         1.7405   -1.0589    6.4069 H         1 <0>         0.1163
     42 H16         1.0694    0.1156    7.5683 H         1 <0>         0.0833
     43 H17        -0.2299   -0.5080    8.5320 H         1 <0>         0.4162
     44 H18        -1.1280   -0.7597   10.6780 H         1 <0>         0.4400
     45 H19        -3.4995   -1.1487    7.4949 H         1 <0>         0.4482
     46 H20        -4.1325   -1.3271    9.0409 H         1 <0>         0.4394
     47 H21        -2.6979   -2.4791    4.1649 H         1 <0>         0.0812
     48 H22        -3.0445   -0.9938    5.0826 H         1 <0>         0.0721
     49 H23        -3.5409   -1.1232    3.3781 H         1 <0>         0.0966
     50 H24        -2.7600   -1.1019   10.8831 H         1 <0>         0.4456
@<TRIPOS>BOND
     1    1    2 1
     2    1   27 1
     3    1   28 1
     4    1   29 1
     5    2    3 1
     6    2   30 1
     7    2   31 1
     8    3    4 1
     9    3   10 am
    10    4    9 ar
    11    4    5 ar
    12    5    6 ar
    13    5   32 1
    14    6    7 ar
    15    6   33 1
    16    7    8 ar
    17    7   34 1
    18    8    9 ar
    19    8   35 1
    20    9   36 1
    21   10   11 2
    22   10   12 1
    23   12   16 1
    24   12   13 2
    25   13   14 1
    26   13   26 1
    27   14   20 1
    28   14   15 2
    29   15   16 1
    30   15   17 1
    31   17   18 1
    32   17   37 1
    33   17   38 1
    34   18   19 1
    35   18   39 1
    36   18   40 1
    37   19   20 1
    38   19   41 1
    39   19   42 1
    40   20   21 2
    41   21   22 1
    42   22   23 1
    43   22   43 1
    44   23   24 2
    45   23   25 1
    46   24   44 1
    47   24   50 1
    48   25   45 1
    49   25   46 1
    50   26   47 1
    51   26   48 1
    52   26   49 1
@<TRIPOS>MOLECULE
ZINC44466740
   26    26     0     0     0
SMALL
USER_CHARGES

@<TRIPOS>ATOM
      1 C1         -0.0167    1.3771    0.0096 C.ar      1 <0>        -0.0389
      2 C2          1.1711    2.0863    0.0021 C.ar      1 <0>        -0.0990
      3 C3          2.3799    1.4146   -0.0130 C.ar      1 <0>        -0.0250
      4 C4          2.4036    0.0327   -0.0206 C.ar      1 <0>        -0.1200
      5 C5          1.2133   -0.6804   -0.0131 C.ar      1 <0>         0.1225
      6 C6          0.0021   -0.0041    0.0020 C.ar      1 <0>        -0.1341
      7 C7         -1.2923   -0.7757    0.0107 C.3       1 <0>        -0.0970
      8 C8         -1.6518   -1.1526    1.4493 C.3       1 <0>         0.0368
      9 H1         -1.6778   -0.2534    2.0648 H         1 <0>         0.1536
     10 C9         -3.0254   -1.8260    1.4721 C.3       1 <0>         0.0514
     11 O1         -3.4126   -2.0728    2.8253 O.3       1 <0>        -0.5802
     12 N1         -0.6431   -2.0797    1.9793 N.4       1 <0>        -0.6382
     13 O2          1.2339   -2.0394   -0.0210 O.3       1 <0>        -0.4712
     14 I1          4.2350   -0.9843   -0.0442 I         1 <0>         0.0164
     15 I2          1.1386    4.1810    0.0129 I         1 <0>         0.0091
     16 H2         -0.9594    1.9038    0.0259 H         1 <0>         0.1516
     17 H3          3.3059    1.9703   -0.0192 H         1 <0>         0.1513
     18 H4         -2.0856   -0.1595   -0.4125 H         1 <0>         0.1326
     19 H5         -1.1792   -1.6817   -0.5848 H         1 <0>         0.1155
     20 H6         -3.7581   -1.1731    0.9978 H         1 <0>         0.1002
     21 H7         -2.9760   -2.7706    0.9303 H         1 <0>         0.0778
     22 H8         -4.2758   -2.4992    2.9159 H         1 <0>         0.4136
     23 H9          0.2628   -1.6356    1.9643 H         1 <0>         0.4211
     24 H10        -0.8801   -2.3283    2.9280 H         1 <0>         0.4474
     25 H11         1.2485   -2.4376    0.8601 H         1 <0>         0.3679
     26 H12        -0.6190   -2.9121    1.4095 H         1 <0>         0.4346
@<TRIPOS>BOND
     1    1    6 ar
     2    1    2 ar
     3    1   16 1
     4    2    3 ar
     5    2   15 1
     6    3    4 ar
     7    3   17 1
     8    4    5 ar
     9    4   14 1
    10    5    6 ar
    11    5   13 1
    12    6    7 1
    13    7    8 1
    14    7   18 1
    15    7   19 1
    16    8    9 1
    17    8   10 1
    18    8   12 1
    19   10   11 1
    20   10   20 1
    21   10   21 1
    22   11   22 1
    23   12   23 1
    24   12   24 1
    25   12   26 1
    26   13   25 1
@<TRIPOS>MOLECULE
ZINC58633985
   38    40     0     0     0
SMALL
USER_CHARGES

@<TRIPOS>ATOM
      1 C1         -0.0167    1.3780    0.0096 C.ar      1 <0>        -0.1011
      2 C2          1.1709    2.0859    0.0021 C.ar      1 <0>        -0.0941
      3 C3          2.3773    1.4120   -0.0131 C.ar      1 <0>        -0.0898
      4 C4          2.3966    0.0286   -0.0207 C.ar      1 <0>        -0.0813
      5 C5          1.2084   -0.6791   -0.0132 C.ar      1 <0>        -0.1010
      6 C6          0.0021   -0.0041    0.0020 C.ar      1 <0>        -0.0912
      7 C7          1.2287   -2.1859   -0.0220 C.3       1 <0>         0.1550
      8 N1          1.4883   -2.6788    1.3330 N.pl3     1 <0>        -0.7295
      9 C8          1.5536   -4.0527    1.5759 C.ar      1 <0>         0.2894
     10 C9          1.3782   -4.9517    0.5329 C.ar      1 <0>        -0.2216
     11 C10         1.4439   -6.3151    0.7786 C.ar      1 <0>         0.2698
     12 C11         1.6851   -6.7769    2.0669 C.ar      1 <0>        -0.1549
     13 C12         1.8588   -5.8800    3.1028 C.ar      1 <0>        -0.0079
     14 C13         1.7998   -4.5209    2.8607 C.ar      1 <0>        -0.1748
     15 N2          1.9826   -3.6160    3.9105 N.4       1 <0>        -0.5471
     16 C14         1.7570   -8.2589    2.3302 C.3       1 <0>        -0.0766
     17 C15         0.7829   -8.9900    1.4058 C.3       1 <0>        -0.1422
     18 C16         0.9615   -8.5106   -0.0095 C.2       1 <0>         0.5193
     19 O1          0.8269   -9.2910   -0.9281 O.2       1 <0>        -0.4936
     20 N3          1.2685   -7.2262   -0.2677 N.am      1 <0>        -0.6652
     21 Br1         4.0470   -0.8942   -0.0421 Br        1 <0>        -0.0385
     22 H1         -0.9592    1.9050    0.0260 H         1 <0>         0.1379
     23 H2          1.1558    3.1658    0.0077 H         1 <0>         0.1401
     24 H3          3.3049    1.9651   -0.0193 H         1 <0>         0.1397
     25 H4         -0.9258   -0.5567    0.0083 H         1 <0>         0.1362
     26 H5          0.2646   -2.5603   -0.3662 H         1 <0>         0.0899
     27 H6          2.0142   -2.5348   -0.6922 H         1 <0>         0.0918
     28 H7          1.6149   -2.0509    2.0615 H         1 <0>         0.3953
     29 H8          1.1906   -4.5904   -0.4675 H         1 <0>         0.1512
     30 H9          2.0458   -6.2416    4.1032 H         1 <0>         0.1539
     31 H10         1.0915   -3.4117    4.3374 H         1 <0>         0.4307
     32 H11         2.6005   -4.0195    4.5986 H         1 <0>         0.4406
     33 H12         2.7708   -8.6124    2.1420 H         1 <0>         0.0921
     34 H13         1.4904   -8.4567    3.3684 H         1 <0>         0.0998
     35 H14         0.9753  -10.0619    1.4520 H         1 <0>         0.1203
     36 H15        -0.2395   -8.7928    1.7285 H         1 <0>         0.1109
     37 H16         1.3687   -6.9302   -1.1859 H         1 <0>         0.4198
     38 H17         2.3877   -2.7637    3.5533 H         1 <0>         0.4264
@<TRIPOS>BOND
     1    1    6 ar
     2    1    2 ar
     3    1   22 1
     4    2    3 ar
     5    2   23 1
     6    3    4 ar
     7    3   24 1
     8    4    5 ar
     9    4   21 1
    10    5    6 ar
    11    5    7 1
    12    6   25 1
    13    7    8 1
    14    7   26 1
    15    7   27 1
    16    8    9 1
    17    8   28 1
    18    9   14 ar
    19    9   10 ar
    20   10   11 ar
    21   10   29 1
    22   11   20 1
    23   11   12 ar
    24   12   13 ar
    25   12   16 1
    26   13   14 ar
    27   13   30 1
    28   14   15 1
    29   15   31 1
    30   15   32 1
    31   15   38 1
    32   16   17 1
    33   16   33 1
    34   16   34 1
    35   17   18 1
    36   17   35 1
    37   17   36 1
    38   18   19 2
    39   18   20 am
    40   20   37 1
@<TRIPOS>MOLECULE
ZINC00875595
   45    48     0     0     0
SMALL
USER_CHARGES
dihydroxy-dimethyl-(2-thienyl)BLAHthione
@<TRIPOS>ATOM
      1 C1          7.5103   -3.4497    1.5144 C.3       1 <0>        -0.1599
      2 C2          6.5294   -2.3113    1.8589 C.3       1 <0>         0.1538
      3 C3          6.4557   -1.3653    0.6683 C.3       1 <0>        -0.1614
      4 C4          6.0141    0.0421    1.0310 C.3       1 <0>         0.3405
      5 C5          4.4983    0.1318    1.2142 C.3       1 <0>        -0.1556
      6 C6          3.7943   -0.3963   -0.0359 C.3       1 <0>         0.0546
      7 H1          3.8064   -1.4865   -0.0326 H         1 <0>         0.1097
      8 C7          4.4765    0.1093   -1.2808 C.ar      1 <0>        -0.1532
      9 C8          3.8621   -0.0845   -2.5086 C.ar      1 <0>        -0.0606
     10 C9          4.4492    0.3796   -3.6695 C.ar      1 <0>        -0.1536
     11 C10         5.6671    1.0397   -3.6160 C.ar      1 <0>         0.1219
     12 C11         6.2956    1.2234   -2.3922 C.ar      1 <0>         0.0578
     13 C12         5.7036    0.7467   -1.2241 C.ar      1 <0>         0.1314
     14 O1          6.3598    0.9298   -0.0475 O.3       1 <0>        -0.3029
     15 O2          7.4939    1.8661   -2.3333 O.3       1 <0>        -0.4707
     16 O3          6.2422    1.5067   -4.7561 O.3       1 <0>        -0.4808
     17 C13         2.3597    0.0756   -0.0201 C.2       1 <0>        -0.1485
     18 C14         1.2198   -0.6579   -0.0131 C.2       1 <0>        -0.1452
     19 C15         0.0021   -0.0041    0.0020 C.2       1 <0>        -0.1605
     20 C16        -0.0163    1.3513    0.0095 C.2       1 <0>        -0.1671
     21 S1          1.7251    1.7443   -0.0050 S.3       1 <0>         0.0552
     22 N1          6.6854    0.5193    2.2382 N.pl3     1 <0>        -0.6588
     23 C17         7.1137   -0.3229    3.1864 C.2       1 <0>         0.5937
     24 S2          7.8265    0.3257    4.6024 S.2       1 <0>        -0.6383
     25 N2          7.0127   -1.6506    3.0655 N.pl3     1 <0>        -0.6624
     26 C18         5.1599   -2.9424    2.1309 C.3       1 <0>        -0.1691
     27 H2          7.5495   -4.1582    2.3418 H         1 <0>         0.0739
     28 H3          7.1712   -3.9613    0.6137 H         1 <0>         0.0797
     29 H4          8.5036   -3.0344    1.3443 H         1 <0>         0.0680
     30 H5          5.7716   -1.7841   -0.0813 H         1 <0>         0.1119
     31 H6          7.4494   -1.3155    0.1954 H         1 <0>         0.0968
     32 H7          4.2173    1.1815    1.3636 H         1 <0>         0.0941
     33 H8          4.1862   -0.4328    2.0900 H         1 <0>         0.1004
     34 H9          2.9190   -0.6069   -2.5712 H         1 <0>         0.1360
     35 H10         3.9574    0.2289   -4.6191 H         1 <0>         0.1406
     36 H11         8.2588    1.2806   -2.4189 H         1 <0>         0.3848
     37 H12         6.8314    0.8728   -5.1876 H         1 <0>         0.3930
     38 H13         1.2625   -1.7370   -0.0197 H         1 <0>         0.1338
     39 H14        -0.9210   -0.5647    0.0075 H         1 <0>         0.1358
     40 H15        -0.8644    2.0199    0.0173 H         1 <0>         0.1871
     41 H16         6.8268    1.4738    2.3525 H         1 <0>         0.4384
     42 H17         7.2744   -2.2042    3.8277 H         1 <0>         0.4351
     43 H18         4.4541   -2.1659    2.4257 H         1 <0>         0.0666
     44 H19         4.8012   -3.4355    1.2274 H         1 <0>         0.0794
     45 H20         5.2502   -3.6749    2.9331 H         1 <0>         0.0748
@<TRIPOS>BOND
     1    1    2 1
     2    1   27 1
     3    1   28 1
     4    1   29 1
     5    2   25 1
     6    2    3 1
     7    2   26 1
     8    3    4 1
     9    3   30 1
    10    3   31 1
    11    4   14 1
    12    4    5 1
    13    4   22 1
    14    5    6 1
    15    5   32 1
    16    5   33 1
    17    6    7 1
    18    6    8 1
    19    6   17 1
    20    8   13 ar
    21    8    9 ar
    22    9   10 ar
    23    9   34 1
    24   10   11 ar
    25   10   35 1
    26   11   12 ar
    27   11   16 1
    28   12   13 ar
    29   12   15 1
    30   13   14 1
    31   15   36 1
    32   16   37 1
    33   17   21 1
    34   17   18 2
    35   18   19 1
    36   18   38 1
    37   19   20 2
    38   19   39 1
    39   20   21 1
    40   20   40 1
    41   22   23 1
    42   22   41 1
    43   23   24 2
    44   23   25 1
    45   25   42 1
    46   26   43 1
    47   26   44 1
    48   26   45 1
@<TRIPOS>MOLECULE
ZINC00234609
   45    47     0     0     0
SMALL
USER_CHARGES
(2S)-N-[(2,4-dihydroxyphenyl)methyleneamino]-2-(1-naphthylamino)propanamide
@<TRIPOS>ATOM
      1 C1         -7.4026    4.8460    1.3467 C.3       1 <0>        -0.1685
      2 C2         -7.3267    3.9728    0.0926 C.3       1 <0>         0.1397
      3 H1         -7.3977    4.6032   -0.7938 H         1 <0>         0.1121
      4 C3         -6.0158    3.2296    0.0767 C.2       1 <0>         0.5290
      5 O1         -6.0063    2.0164    0.0709 O.2       1 <0>        -0.4903
      6 N1         -4.8539    3.9126    0.0688 N.am      1 <0>        -0.5832
      7 N2         -3.6353    3.2216    0.0540 N.2       1 <0>        -0.2049
      8 C4         -2.5160    3.8796    0.0464 C.2       1 <0>         0.1068
      9 C5         -1.2347    3.1531    0.0308 C.ar      1 <0>        -0.0978
     10 C6         -0.0284    3.8584    0.0226 C.ar      1 <0>        -0.0562
     11 C7          1.1677    3.1752    0.0075 C.ar      1 <0>        -0.1597
     12 C8          1.1795    1.7852    0.0004 C.ar      1 <0>         0.1425
     13 C9         -0.0126    1.0758    0.0080 C.ar      1 <0>        -0.1821
     14 C10        -1.2206    1.7509    0.0174 C.ar      1 <0>         0.1663
     15 O2         -2.3884    1.0578    0.0191 O.3       1 <0>        -0.4712
     16 O3          2.3631    1.1189   -0.0145 O.3       1 <0>        -0.4974
     17 N3         -8.4327    3.0122    0.0987 N.pl3     1 <0>        -0.7228
     18 C11        -9.6804    3.3833   -0.3976 C.ar      1 <0>         0.2352
     19 C12        -9.8828    4.6549   -0.8907 C.ar      1 <0>        -0.2238
     20 C13       -11.1242    5.0342   -1.3921 C.ar      1 <0>        -0.0606
     21 C14       -12.1735    4.1664   -1.4021 C.ar      1 <0>        -0.1690
     22 C15       -12.0105    2.8625   -0.9043 C.ar      1 <0>        -0.0090
     23 C16       -10.7504    2.4629   -0.3949 C.ar      1 <0>        -0.0952
     24 C17       -10.5896    1.1605    0.1030 C.ar      1 <0>        -0.0943
     25 C18       -11.6439    0.2990    0.0904 C.ar      1 <0>        -0.1294
     26 C19       -12.8839    0.6909   -0.4105 C.ar      1 <0>        -0.1043
     27 C20       -13.0763    1.9457   -0.9012 C.ar      1 <0>        -0.1176
     28 H2         -7.3316    4.2156    2.2332 H         1 <0>         0.0688
     29 H3         -6.5797    5.5607    1.3422 H         1 <0>         0.0697
     30 H4         -8.3508    5.3835    1.3583 H         1 <0>         0.0810
     31 H5         -4.8615    4.8826    0.0734 H         1 <0>         0.3860
     32 H6         -2.5244    4.9595    0.0515 H         1 <0>         0.1231
     33 H7         -0.0339    4.9384    0.0284 H         1 <0>         0.1388
     34 H8          2.0994    3.7213    0.0015 H         1 <0>         0.1378
     35 H9          0.0021   -0.0041    0.0020 H         1 <0>         0.1396
     36 H10        -2.7224    0.8522    0.9030 H         1 <0>         0.3954
     37 H11         2.6974    0.9307   -0.9021 H         1 <0>         0.3974
     38 H12        -8.2962    2.1177    0.4482 H         1 <0>         0.4102
     39 H13        -9.0679    5.3636   -0.8905 H         1 <0>         0.1203
     40 H14       -11.2586    6.0344   -1.7767 H         1 <0>         0.1212
     41 H15       -13.1303    4.4799   -1.7927 H         1 <0>         0.1230
     42 H16        -9.6341    0.8431    0.4939 H         1 <0>         0.1202
     43 H17       -11.5175   -0.7024    0.4744 H         1 <0>         0.1225
     44 H18       -13.7044   -0.0113   -0.4089 H         1 <0>         0.1228
     45 H19       -14.0426    2.2355   -1.2865 H         1 <0>         0.1277
@<TRIPOS>BOND
     1    1    2 1
     2    1   28 1
     3    1   29 1
     4    1   30 1
     5    2    3 1
     6    2    4 1
     7    2   17 1
     8    4    5 2
     9    4    6 am
    10    6    7 1
    11    6   31 1
    12    7    8 2
    13    8    9 1
    14    8   32 1
    15    9   14 ar
    16    9   10 ar
    17   10   11 ar
    18   10   33 1
    19   11   12 ar
    20   11   34 1
    21   12   13 ar
    22   12   16 1
    23   13   14 ar
    24   13   35 1
    25   14   15 1
    26   15   36 1
    27   16   37 1
    28   17   18 1
    29   17   38 1
    30   18   23 ar
    31   18   19 ar
    32   19   20 ar
    33   19   39 1
    34   20   21 ar
    35   20   40 1
    36   21   22 ar
    37   21   41 1
    38   22   27 ar
    39   22   23 ar
    40   23   24 ar
    41   24   25 ar
    42   24   42 1
    43   25   26 ar
    44   25   43 1
    45   26   27 ar
    46   26   44 1
    47   27   45 1
@<TRIPOS>MOLECULE
ZINC35341328
   34    36     0     0     0
SMALL
USER_CHARGES

@<TRIPOS>ATOM
      1 C1          0.3591    1.0653    1.3922 C.ar      1 <0>        -0.0764
      2 C2          1.5042    1.8035    1.1635 C.ar      1 <0>        -0.1339
      3 C3          2.4235    1.3802    0.2126 C.ar      1 <0>         0.1935
      4 C4          2.1882    0.2138   -0.5068 C.ar      1 <0>        -0.0654
      5 C5          1.0411   -0.5201   -0.2735 C.ar      1 <0>        -0.0741
      6 C6          0.1271   -0.0950    0.6751 C.ar      1 <0>        -0.0508
      7 Cl1        -1.3132   -1.0195    0.9657 Cl        1 <0>        -0.0561
      8 Cl2         3.3340   -0.3193   -1.6970 Cl        1 <0>        -0.0520
      9 N1          3.5828    2.1254   -0.0212 N.pl3     1 <0>        -0.6805
     10 C7          3.5124    3.5231   -0.1060 C.ar      1 <0>         0.1030
     11 C8          2.2804    4.1591   -0.0772 C.ar      1 <0>        -0.1045
     12 C9          2.2102    5.5366   -0.1604 C.ar      1 <0>        -0.1356
     13 C10         3.3726    6.2884   -0.2733 C.ar      1 <0>         0.1712
     14 C11         4.6085    5.6571   -0.3022 C.ar      1 <0>        -0.1934
     15 C12         4.6820    4.2757   -0.2137 C.ar      1 <0>         0.2033
     16 N2          5.9271    3.6368   -0.2377 N.pl3     1 <0>        -0.8764
     17 N3          3.2956    7.6843   -0.3575 N.am      1 <0>        -0.6620
     18 C13         2.1824    8.3306    0.0345 C.2       1 <0>         0.5213
     19 O1          2.1265    9.5387   -0.0582 O.2       1 <0>        -0.5295
     20 C14         1.0061    7.5717    0.5871 C.3       1 <0>        -0.1381
     21 C15         0.8713    6.2275   -0.1292 C.3       1 <0>        -0.0711
     22 H1         -0.3538    1.3919    2.1349 H         1 <0>         0.1445
     23 H2          1.6842    2.7092    1.7235 H         1 <0>         0.1493
     24 H3          0.8574   -1.4262   -0.8317 H         1 <0>         0.1468
     25 H4          4.4359    1.6756   -0.1247 H         1 <0>         0.4072
     26 H5          1.3748    3.5771    0.0099 H         1 <0>         0.1387
     27 H6          5.5122    6.2418   -0.3905 H         1 <0>         0.1311
     28 H7          5.9773    2.6699   -0.1794 H         1 <0>         0.3940
     29 H8          6.7398    4.1610   -0.3126 H         1 <0>         0.4036
     30 H9          4.0497    8.1885   -0.7010 H         1 <0>         0.4098
     31 H10         1.1541    7.4009    1.6534 H         1 <0>         0.1039
     32 H11         0.0970    8.1541    0.4377 H         1 <0>         0.1086
     33 H12         0.5241    6.3928   -1.1491 H         1 <0>         0.0808
     34 H13         0.1529    5.6034    0.4022 H         1 <0>         0.0895
@<TRIPOS>BOND
     1    1    6 ar
     2    1    2 ar
     3    1   22 1
     4    2    3 ar
     5    2   23 1
     6    3    4 ar
     7    3    9 1
     8    4    5 ar
     9    4    8 1
    10    5    6 ar
    11    5   24 1
    12    6    7 1
    13    9   10 1
    14    9   25 1
    15   10   15 ar
    16   10   11 ar
    17   11   12 ar
    18   11   26 1
    19   12   21 1
    20   12   13 ar
    21   13   14 ar
    22   13   17 1
    23   14   15 ar
    24   14   27 1
    25   15   16 1
    26   16   28 1
    27   16   29 1
    28   17   18 am
    29   17   30 1
    30   18   19 2
    31   18   20 1
    32   20   21 1
    33   20   31 1
    34   20   32 1
    35   21   33 1
    36   21   34 1
@<TRIPOS>MOLECULE
ZINC40703427
   41    43     0     0     0
SMALL
USER_CHARGES

@<TRIPOS>ATOM
      1 C1         -1.5083    1.4427   -0.2438 C.3       1 <0>        -0.1055
      2 C2         -1.3232   -0.0469   -0.1104 C.ar      1 <0>        -0.1769
      3 C3         -1.4244   -0.6578    1.1327 C.ar      1 <0>        -0.0466
      4 C4         -1.2482   -2.0274    1.2114 C.ar      1 <0>        -0.2127
      5 C5         -0.9771   -2.7425    0.0492 C.ar      1 <0>         0.3655
      6 N1         -0.8879   -2.1233   -1.1177 N.ar      1 <0>        -0.4610
      7 C6         -1.0571   -0.8189   -1.2234 C.ar      1 <0>         0.1349
      8 N2         -0.7975   -4.1207    0.1138 N.pl3     1 <0>        -0.6368
      9 C7         -0.6573   -4.8595   -1.0565 C.ar      1 <0>         0.3824
     10 C8         -0.5629   -6.2517   -1.0090 C.ar      1 <0>         0.0227
     11 C9         -0.4233   -6.9443   -2.2132 C.ar      1 <0>         0.3823
     12 N3         -0.3859   -6.2562   -3.3520 N.ar      1 <0>        -0.5510
     13 C10        -0.4785   -4.9420   -3.3525 C.ar      1 <0>         0.3107
     14 N4         -0.6167   -4.2507   -2.2391 N.ar      1 <0>        -0.4943
     15 N5         -0.3244   -8.3311   -2.2227 N.pl3     1 <0>        -0.6504
     16 C11        -0.3174   -9.0232   -3.4375 C.ar      1 <0>         0.1756
     17 C12        -0.9219   -8.4678   -4.5583 C.ar      1 <0>        -0.1114
     18 C13        -0.9129   -9.1533   -5.7569 C.ar      1 <0>        -0.0912
     19 C14        -0.3025  -10.3926   -5.8423 C.ar      1 <0>        -0.0562
     20 C15         0.2999  -10.9483   -4.7275 C.ar      1 <0>        -0.0878
     21 C16         0.2990  -10.2645   -3.5274 C.ar      1 <0>        -0.1173
     22 C17         0.9608  -10.8676   -2.3152 C.3       1 <0>        -0.1137
     23 Cl1        -0.2932  -11.2516   -7.3509 Cl        1 <0>        -0.0746
     24 N6         -0.6065   -6.9361    0.2157 N.pl3     1 <0>        -0.8752
     25 H1         -2.5609    1.6636   -0.4211 H         1 <0>         0.0696
     26 H2         -1.1839    1.9328    0.6742 H         1 <0>         0.0653
     27 H3         -0.9142    1.8091   -1.0809 H         1 <0>         0.0685
     28 H4         -1.6356   -0.0765    2.0180 H         1 <0>         0.1352
     29 H5         -1.3197   -2.5347    2.1621 H         1 <0>         0.1311
     30 H6         -0.9819   -0.3485   -2.1927 H         1 <0>         0.1574
     31 H7         -0.7701   -4.5664    0.9750 H         1 <0>         0.4206
     32 H8         -0.4442   -4.4153   -4.2947 H         1 <0>         0.1993
     33 H9         -0.2604   -8.8185   -1.3865 H         1 <0>         0.4136
     34 H10        -1.3986   -7.5010   -4.4921 H         1 <0>         0.1570
     35 H11        -1.3830   -8.7223   -6.6284 H         1 <0>         0.1346
     36 H12         0.7749  -11.9158   -4.7968 H         1 <0>         0.1341
     37 H13         0.2361  -11.4705   -1.7679 H         1 <0>         0.0722
     38 H14         1.7927  -11.4972   -2.6309 H         1 <0>         0.0747
     39 H15         1.3321  -10.0714   -1.6701 H         1 <0>         0.0625
     40 H16        -0.7035   -6.4415    1.0445 H         1 <0>         0.3962
     41 H17        -0.5397   -7.9036    0.2333 H         1 <0>         0.3963
@<TRIPOS>BOND
     1    1    2 1
     2    1   25 1
     3    1   26 1
     4    1   27 1
     5    2    7 ar
     6    2    3 ar
     7    3    4 ar
     8    3   28 1
     9    4    5 ar
    10    4   29 1
    11    5    6 ar
    12    5    8 1
    13    6    7 ar
    14    7   30 1
    15    8    9 1
    16    8   31 1
    17    9   14 ar
    18    9   10 ar
    19   10   11 ar
    20   10   24 1
    21   11   12 ar
    22   11   15 1
    23   12   13 ar
    24   13   14 ar
    25   13   32 1
    26   15   16 1
    27   15   33 1
    28   16   21 ar
    29   16   17 ar
    30   17   18 ar
    31   17   34 1
    32   18   19 ar
    33   18   35 1
    34   19   20 ar
    35   19   23 1
    36   20   21 ar
    37   20   36 1
    38   21   22 1
    39   22   37 1
    40   22   38 1
    41   22   39 1
    42   24   40 1
    43   24   41 1
@<TRIPOS>MOLECULE
ZINC00588474
   42    44     0     0     0
SMALL
USER_CHARGES

@<TRIPOS>ATOM
      1 C1         -0.0164    1.3616    0.0095 C.ar      1 <0>        -0.0859
      2 C2          1.1851    2.0774    0.0019 C.ar      1 <0>         0.0757
      3 C3          2.4057    1.3946   -0.0134 C.ar      1 <0>        -0.1364
      4 C4          2.4242    0.0289   -0.0204 C.ar      1 <0>        -0.0860
      5 C5          1.2226   -0.6868   -0.0118 C.ar      1 <0>         0.0757
      6 C6          0.0021   -0.0041    0.0020 C.ar      1 <0>        -0.1364
      7 N1          1.2412   -2.0532   -0.0198 N.2       1 <0>        -0.4557
      8 C7          0.4591   -2.7212    0.7841 C.2       1 <0>         0.1962
      9 C8          0.4790   -4.1893    0.7756 C.ar      1 <0>        -0.1210
     10 C9          1.3427   -4.8784   -0.0924 C.ar      1 <0>         0.1762
     11 C10         1.3545   -6.2617   -0.0935 C.ar      1 <0>        -0.1863
     12 C11         0.5160   -6.9646    0.7601 C.ar      1 <0>         0.1458
     13 C12        -0.3403   -6.2848    1.6201 C.ar      1 <0>        -0.1636
     14 C13        -0.3581   -4.9088    1.6362 C.ar      1 <0>        -0.0529
     15 O1          0.5312   -8.3221    0.7554 O.3       1 <0>        -0.4964
     16 O2          2.1618   -4.1896   -0.9268 O.3       1 <0>        -0.4697
     17 N2          1.1666    3.4437    0.0089 N.2       1 <0>        -0.4558
     18 C14         1.9645    4.1033    0.8042 C.2       1 <0>         0.1961
     19 C15         1.9446    5.5713    0.8118 C.ar      1 <0>        -0.1210
     20 C16         1.0640    6.2696   -0.0316 C.ar      1 <0>         0.1762
     21 C17         1.0522    7.6527   -0.0177 C.ar      1 <0>        -0.1863
     22 C18         1.9076    8.3466    0.8265 C.ar      1 <0>         0.1458
     23 C19         2.7808    7.6578    1.6621 C.ar      1 <0>        -0.1636
     24 C20         2.7987    6.2817    1.6632 C.ar      1 <0>        -0.0529
     25 O3          1.8925    9.7041    0.8366 O.3       1 <0>        -0.4964
     26 O4          0.2284    5.5896   -0.8569 O.3       1 <0>        -0.4697
     27 H1         -0.9589    1.8888    0.0259 H         1 <0>         0.1310
     28 H2          3.3335    1.9473   -0.0200 H         1 <0>         0.1274
     29 H3          3.3667   -0.4983   -0.0329 H         1 <0>         0.1311
     30 H4         -0.9258   -0.5567    0.0082 H         1 <0>         0.1274
     31 H5         -0.2025   -2.1940    1.4555 H         1 <0>         0.1100
     32 H6          2.0167   -6.7950   -0.7594 H         1 <0>         0.1394
     33 H7         -0.9902   -6.8389    2.2811 H         1 <0>         0.1374
     34 H8         -1.0209   -4.3846    2.3087 H         1 <0>         0.1387
     35 H9          1.1637   -8.7105    1.3752 H         1 <0>         0.3969
     36 H10         3.0275   -3.9847   -0.5476 H         1 <0>         0.3933
     37 H11         2.6393    3.5690    1.4566 H         1 <0>         0.1100
     38 H12         0.3771    8.1931   -0.6646 H         1 <0>         0.1394
     39 H13         3.4437    8.2049    2.3160 H         1 <0>         0.1374
     40 H14         3.4746    5.7504    2.3168 H         1 <0>         0.1387
     41 H15         1.2724   10.0858    1.4730 H         1 <0>         0.3969
     42 H16        -0.6296    5.3806   -0.4628 H         1 <0>         0.3933
@<TRIPOS>BOND
     1    1    6 ar
     2    1    2 ar
     3    1   27 1
     4    2    3 ar
     5    2   17 1
     6    3    4 ar
     7    3   28 1
     8    4    5 ar
     9    4   29 1
    10    5    6 ar
    11    5    7 1
    12    6   30 1
    13    7    8 2
    14    8    9 1
    15    8   31 1
    16    9   14 ar
    17    9   10 ar
    18   10   11 ar
    19   10   16 1
    20   11   12 ar
    21   11   32 1
    22   12   13 ar
    23   12   15 1
    24   13   14 ar
    25   13   33 1
    26   14   34 1
    27   15   35 1
    28   16   36 1
    29   17   18 2
    30   18   19 1
    31   18   37 1
    32   19   24 ar
    33   19   20 ar
    34   20   21 ar
    35   20   26 1
    36   21   22 ar
    37   21   38 1
    38   22   23 ar
    39   22   25 1
    40   23   24 ar
    41   23   39 1
    42   24   40 1
    43   25   41 1
    44   26   42 1
@<TRIPOS>MOLECULE
ZINC62833665
   32    34     0     0     0
SMALL
USER_CHARGES

@<TRIPOS>ATOM
      1 C1          0.1537    1.3715    0.6375 C.ar      1 <0>        -0.0761
      2 C2          1.1731    2.0860    0.0349 C.ar      1 <0>        -0.1314
      3 C3          2.2139    1.4210   -0.5866 C.ar      1 <0>        -0.0632
      4 C4          2.2385    0.0396   -0.6075 C.ar      1 <0>        -0.1365
      5 C5          1.2161   -0.6808   -0.0026 C.ar      1 <0>         0.1815
      6 C6          0.1722   -0.0092    0.6207 C.ar      1 <0>        -0.1258
      7 N1          1.2374   -2.0789   -0.0222 N.am      1 <0>        -0.6725
      8 C7          0.0867   -2.7721    0.0873 C.2       1 <0>         0.5889
      9 O1         -0.9783   -2.1843    0.1019 O.2       1 <0>        -0.4910
     10 C8          0.1187   -4.2385    0.1889 C.2       1 <0>         0.0077
     11 C9         -0.9700   -5.0449    0.2972 C.2       1 <0>        -0.0938
     12 C10        -0.5109   -6.3822    0.3690 C.ar      1 <0>        -0.0790
     13 C11        -1.1630   -7.6187    0.4866 C.ar      1 <0>        -0.1183
     14 C12        -0.4349   -8.7713    0.5328 C.ar      1 <0>        -0.0928
     15 C13         0.9520   -8.7367    0.4649 C.ar      1 <0>        -0.1806
     16 C14         1.6205   -7.5318    0.3492 C.ar      1 <0>         0.2089
     17 C15         0.8932   -6.3385    0.2993 C.ar      1 <0>         0.0629
     18 N2          1.2590   -5.0168    0.1837 N.pl3     1 <0>        -0.5773
     19 H1          2.1682   -4.6864    0.1126 H         1 <0>         0.4116
     20 N3          3.0171   -7.5068    0.2821 N.pl3     1 <0>        -0.8825
     21 I1          3.8151   -0.9672   -1.5507 I         1 <0>        -0.0402
     22 H2         -0.6556    1.8941    1.1257 H         1 <0>         0.1363
     23 H3          1.1560    3.1657    0.0495 H         1 <0>         0.1349
     24 H4          3.0082    1.9819   -1.0566 H         1 <0>         0.1347
     25 H5         -0.6243   -0.5663    1.0915 H         1 <0>         0.1554
     26 H6          2.0804   -2.5499   -0.1145 H         1 <0>         0.4061
     27 H7         -2.0006   -4.7232    0.3239 H         1 <0>         0.1602
     28 H8         -2.2409   -7.6580    0.5409 H         1 <0>         0.1251
     29 H9         -0.9420   -9.7205    0.6234 H         1 <0>         0.1256
     30 H10         1.5131   -9.6587    0.5033 H         1 <0>         0.1265
     31 H11         3.5193   -8.3359    0.3166 H         1 <0>         0.4034
     32 H12         3.4837   -6.6602    0.2009 H         1 <0>         0.3913
@<TRIPOS>BOND
     1    1    6 ar
     2    1    2 ar
     3    1   22 1
     4    2    3 ar
     5    2   23 1
     6    3    4 ar
     7    3   24 1
     8    4    5 ar
     9    4   21 1
    10    5    6 ar
    11    5    7 1
    12    6   25 1
    13    7    8 am
    14    7   26 1
    15    8    9 2
    16    8   10 1
    17   10   18 1
    18   10   11 2
    19   11   12 1
    20   11   27 1
    21   12   17 ar
    22   12   13 ar
    23   13   14 ar
    24   13   28 1
    25   14   15 ar
    26   14   29 1
    27   15   16 ar
    28   15   30 1
    29   16   17 ar
    30   16   20 1
    31   17   18 1
    32   18   19 1
    33   20   31 1
    34   20   32 1
@<TRIPOS>MOLECULE
ZINC14457670
   50    53     0     0     0
SMALL
USER_CHARGES
(3aS,4R,9bS)-4-(2,4,6-trimethylphenyl)-3a,4,5,9b-tetrahydro-3H-cyclopenta[c]quinoline-8-sulfonamide
@<TRIPOS>ATOM
      1 C1          7.0412    1.1937    5.2120 C.3       1 <0>        -0.1175
      2 C2          6.3467    1.0527    3.8821 C.ar      1 <0>        -0.0719
      3 C3          6.9108    0.2769    2.8866 C.ar      1 <0>        -0.1288
      4 C4          6.2733    0.1468    1.6670 C.ar      1 <0>        -0.0663
      5 C5          5.0714    0.7920    1.4430 C.ar      1 <0>        -0.1154
      6 C6          4.5100    1.5720    2.4366 C.ar      1 <0>        -0.0496
      7 C7          5.1453    1.6986    3.6577 C.ar      1 <0>        -0.1297
      8 C8          3.2028    2.2803    2.1902 C.3       1 <0>        -0.1918
      9 C9          4.3764    0.6501    0.1134 C.3       1 <0>         0.2049
     10 H1          5.0933    0.7652   -0.6996 H         1 <0>         0.1049
     11 C10         3.6893   -0.7004    0.0193 C.3       1 <0>        -0.1044
     12 H2          3.1325   -0.7995   -0.9125 H         1 <0>         0.0976
     13 C11         4.5462   -1.9425    0.2983 C.3       1 <0>        -0.1099
     14 C12         3.5040   -2.9181    0.8485 C.2       1 <0>        -0.1660
     15 C13         2.4939   -2.2466    1.3882 C.2       1 <0>        -0.1531
     16 C14         2.7794   -0.7929    1.2807 C.3       1 <0>        -0.0331
     17 H3          3.3846   -0.5167    2.1442 H         1 <0>         0.0966
     18 C15         1.7003    0.2080    1.1368 C.ar      1 <0>        -0.1669
     19 C16         0.4225   -0.0085    1.6050 C.ar      1 <0>         0.0309
     20 C17        -0.5435    0.9722    1.4758 C.ar      1 <0>        -0.7360
     21 C18        -0.2288    2.1772    0.8744 C.ar      1 <0>         0.0337
     22 C19         1.0458    2.4011    0.3960 C.ar      1 <0>        -0.2354
     23 C20         2.0222    1.4193    0.5144 C.ar      1 <0>         0.3152
     24 N1          3.2988    1.6558   -0.0097 N.pl3     1 <0>        -0.7370
     25 S1         -2.1749    0.6871    2.0776 S.o2      1 <0>         2.7040
     26 O1         -2.0676   -0.3086    3.0857 O.2       1 <0>        -0.9686
     27 O2         -2.7450    1.9647    2.3264 O.2       1 <0>        -0.9673
     28 N2         -3.0433    0.0144    0.8384 N.pl3     1 <0>        -1.2506
     29 C21         6.8882   -0.6989    0.5818 C.3       1 <0>        -0.1448
     30 H4          7.7163    2.0489    5.1805 H         1 <0>         0.0714
     31 H5          6.2986    1.3458    5.9954 H         1 <0>         0.0669
     32 H6          7.6110    0.2886    5.4222 H         1 <0>         0.0673
     33 H7          7.8494   -0.2277    3.0619 H         1 <0>         0.1225
     34 H8          4.7044    2.3044    4.4356 H         1 <0>         0.1200
     35 H9          2.3843    1.5628    2.2474 H         1 <0>         0.1040
     36 H10         3.0611    3.0541    2.9447 H         1 <0>         0.0498
     37 H11         3.2177    2.7364    1.2003 H         1 <0>         0.1147
     38 H12         4.9917   -2.3241   -0.6204 H         1 <0>         0.0773
     39 H13         5.3133   -1.7288    1.0425 H         1 <0>         0.1081
     40 H14         3.5793   -3.9946    0.8049 H         1 <0>         0.1304
     41 H15         1.6120   -2.6843    1.8319 H         1 <0>         0.1319
     42 H16         0.1743   -0.9488    2.0747 H         1 <0>         0.1392
     43 H17        -0.9837    2.9431    0.7750 H         1 <0>         0.1417
     44 H18         1.2857    3.3438   -0.0731 H         1 <0>         0.1335
     45 H19         3.4800    2.4948   -0.4615 H         1 <0>         0.4090
     46 H20        -3.7704   -0.5977    1.0322 H         1 <0>         0.4198
     47 H21        -2.8249    0.2325   -0.0812 H         1 <0>         0.4162
     48 H22         7.6637   -0.1276    0.0715 H         1 <0>         0.0697
     49 H23         7.3271   -1.5937    1.0232 H         1 <0>         0.0727
     50 H24         6.1186   -0.9871   -0.1343 H         1 <0>         0.0898
@<TRIPOS>BOND
     1    1    2 1
     2    1   30 1
     3    1   31 1
     4    1   32 1
     5    2    7 ar
     6    2    3 ar
     7    3    4 ar
     8    3   33 1
     9    4    5 ar
    10    4   29 1
    11    5    6 ar
    12    5    9 1
    13    6    7 ar
    14    6    8 1
    15    7   34 1
    16    8   35 1
    17    8   36 1
    18    8   37 1
    19    9   10 1
    20    9   24 1
    21    9   11 1
    22   11   12 1
    23   11   16 1
    24   11   13 1
    25   13   14 1
    26   13   38 1
    27   13   39 1
    28   14   15 2
    29   14   40 1
    30   15   16 1
    31   15   41 1
    32   16   17 1
    33   16   18 1
    34   18   23 ar
    35   18   19 ar
    36   19   20 ar
    37   19   42 1
    38   20   21 ar
    39   20   25 1
    40   21   22 ar
    41   21   43 1
    42   22   23 ar
    43   22   44 1
    44   23   24 1
    45   24   45 1
    46   25   26 2
    47   25   27 2
    48   25   28 1
    49   28   46 1
    50   28   47 1
    51   29   48 1
    52   29   49 1
    53   29   50 1
@<TRIPOS>MOLECULE
ZINC37287375
   38    39     0     0     0
SMALL
USER_CHARGES

@<TRIPOS>ATOM
      1 C1         -0.6198    1.5708   -0.2252 C.3       1 <0>        -0.1544
      2 C2         -0.4759    0.0481   -0.1847 C.3       1 <0>        -0.1186
      3 C3          0.1860   -0.4361   -1.4763 C.3       1 <0>        -0.0825
      4 C4          0.3277   -1.9359   -1.4365 C.ar      1 <0>        -0.0871
      5 C5          1.4689   -2.5071   -0.9036 C.ar      1 <0>        -0.1007
      6 C6          1.6020   -3.8811   -0.8655 C.ar      1 <0>        -0.1215
      7 C7          0.5881   -4.6897   -1.3632 C.ar      1 <0>         0.1369
      8 C8         -0.5569   -4.1127   -1.8978 C.ar      1 <0>        -0.1457
      9 C9         -0.6860   -2.7380   -1.9276 C.ar      1 <0>        -0.0956
     10 N1          0.7197   -6.0797   -1.3267 N.pl3     1 <0>        -1.0508
     11 S1         -0.5383   -7.0169   -0.7961 S.o2      1 <0>         2.6888
     12 O1         -1.6799   -6.6276   -1.5474 O.2       1 <0>        -0.9464
     13 O2         -0.0641   -8.3562   -0.7696 O.2       1 <0>        -0.9344
     14 C10        -0.8572   -6.5625    0.8762 C.ar      1 <0>        -0.6183
     15 C11        -2.0664   -5.9879    1.2165 C.ar      1 <0>        -0.0867
     16 C12        -2.3172   -5.6305    2.5349 C.ar      1 <0>         0.2072
     17 C13        -1.3507   -5.8520    3.5078 C.ar      1 <0>        -0.1331
     18 C14        -0.1437   -6.4267    3.1619 C.ar      1 <0>        -0.0753
     19 C15         0.1015   -6.7868    1.8482 C.ar      1 <0>        -0.0048
     20 Cl1         1.6175   -7.5152    1.4181 Cl        1 <0>        -0.0511
     21 N2         -3.5394   -5.0486    2.8819 N.pl3     1 <0>        -0.8702
     22 H1          0.3657    2.0264   -0.3214 H         1 <0>         0.0549
     23 H2         -1.2363    1.8549   -1.0780 H         1 <0>         0.0550
     24 H3         -1.0914    1.9157    0.6950 H         1 <0>         0.0548
     25 H4          0.1406   -0.2360    0.6681 H         1 <0>         0.0623
     26 H5         -1.4614   -0.4076   -0.0885 H         1 <0>         0.0625
     27 H6         -0.4305   -0.1520   -2.3292 H         1 <0>         0.0736
     28 H7          1.1715    0.0195   -1.5726 H         1 <0>         0.0731
     29 H8          2.2570   -1.8778   -0.5172 H         1 <0>         0.1265
     30 H9          2.4937   -4.3265   -0.4496 H         1 <0>         0.1288
     31 H10        -1.3470   -4.7384   -2.2859 H         1 <0>         0.1539
     32 H11        -1.5779   -2.2888   -2.3391 H         1 <0>         0.1286
     33 H12         1.5479   -6.4962   -1.6121 H         1 <0>         0.4284
     34 H13        -2.8159   -5.8165    0.4581 H         1 <0>         0.1504
     35 H14        -1.5430   -5.5747    4.5337 H         1 <0>         0.1394
     36 H15         0.6081   -6.5988    3.9179 H         1 <0>         0.1438
     37 H16        -4.2135   -4.8941    2.2018 H         1 <0>         0.4045
     38 H17        -3.7137   -4.7993    3.8030 H         1 <0>         0.4038
@<TRIPOS>BOND
     1    1    2 1
     2    1   22 1
     3    1   23 1
     4    1   24 1
     5    2    3 1
     6    2   25 1
     7    2   26 1
     8    3    4 1
     9    3   27 1
    10    3   28 1
    11    4    9 ar
    12    4    5 ar
    13    5    6 ar
    14    5   29 1
    15    6    7 ar
    16    6   30 1
    17    7    8 ar
    18    7   10 1
    19    8    9 ar
    20    8   31 1
    21    9   32 1
    22   10   11 1
    23   10   33 1
    24   11   12 2
    25   11   13 2
    26   11   14 1
    27   14   19 ar
    28   14   15 ar
    29   15   16 ar
    30   15   34 1
    31   16   17 ar
    32   16   21 1
    33   17   18 ar
    34   17   35 1
    35   18   19 ar
    36   18   36 1
    37   19   20 1
    38   21   37 1
    39   21   38 1
@<TRIPOS>MOLECULE
ZINC43460903
   32    35     0     0     0
SMALL
USER_CHARGES

@<TRIPOS>ATOM
      1 C1         -0.2919    1.0677    0.0951 C.ar      1 <0>        -0.1399
      2 C2          0.8052    1.9273    0.0746 C.ar      1 <0>        -0.0899
      3 C3          2.0757    1.4416    0.0273 C.ar      1 <0>        -0.1297
      4 C4          2.2902    0.0525   -0.0015 C.ar      1 <0>         0.0241
      5 C5          3.5904   -0.4775   -0.0499 C.ar      1 <0>        -0.2167
      6 C6          3.7750   -1.8299   -0.0768 C.ar      1 <0>         0.2710
      7 C7          2.6693   -2.7084   -0.0569 C.ar      1 <0>        -0.1043
      8 C8          1.3790   -2.2101   -0.0093 C.ar      1 <0>        -0.0232
      9 C9          1.1736   -0.8225    0.0193 C.ar      1 <0>        -0.1066
     10 C10        -0.1242   -0.2825    0.0683 C.ar      1 <0>        -0.0822
     11 C11         2.8913   -4.1680   -0.0876 C.2       1 <0>         0.3857
     12 N1          4.0625   -4.7554   -0.0160 N.2       1 <0>        -0.4923
     13 H1          0.9527   -4.9471   -0.2536 H         1 <0>         0.4305
     14 C12         3.9074   -6.0942   -0.0715 C.ar      1 <0>         0.2758
     15 C13         2.5276   -6.3457   -0.1867 C.ar      1 <0>        -0.0015
     16 N2          1.9063   -5.1125   -0.1893 N.pl3     1 <0>        -0.5859
     17 C14         2.0766   -7.6565   -0.2650 C.ar      1 <0>        -0.0239
     18 C15         3.0145   -8.6755   -0.2261 C.ar      1 <0>        -0.1424
     19 C16         4.3601   -8.3598   -0.1115 C.ar      1 <0>         0.1584
     20 N3          4.7674   -7.1114   -0.0379 N.ar      1 <0>        -0.4356
     21 Br1         2.4644  -10.4819   -0.3279 Br        1 <0>        -0.0170
     22 N4          5.0668   -2.3485   -0.1247 N.pl3     1 <0>        -0.8603
     23 H2         -1.2895    1.4793    0.1374 H         1 <0>         0.1234
     24 H3          0.6446    2.9951    0.0962 H         1 <0>         0.1239
     25 H4          2.9156    2.1204    0.0115 H         1 <0>         0.1284
     26 H5          4.4434    0.1847   -0.0662 H         1 <0>         0.1334
     27 H6          0.5359   -2.8848    0.0054 H         1 <0>         0.1286
     28 H7         -0.9837   -0.9363    0.0850 H         1 <0>         0.1258
     29 H8          1.0228   -7.8759   -0.3535 H         1 <0>         0.1486
     30 H9          5.0890   -9.1561   -0.0814 H         1 <0>         0.1776
     31 H10         5.8254   -1.7523   -0.2250 H         1 <0>         0.3965
     32 H11         5.2079   -3.3059   -0.0579 H         1 <0>         0.4196
@<TRIPOS>BOND
     1    1   10 ar
     2    1    2 ar
     3    1   23 1
     4    2    3 ar
     5    2   24 1
     6    3    4 ar
     7    3   25 1
     8    4    9 ar
     9    4    5 ar
    10    5    6 ar
    11    5   26 1
    12    6    7 ar
    13    6   22 1
    14    7    8 ar
    15    7   11 1
    16    8    9 ar
    17    8   27 1
    18    9   10 ar
    19   10   28 1
    20   11   16 1
    21   11   12 2
    22   12   14 1
    23   13   16 1
    24   14   15 ar
    25   14   20 ar
    26   15   17 ar
    27   15   16 1
    28   17   18 ar
    29   17   29 1
    30   18   19 ar
    31   18   21 1
    32   19   30 1
    33   19   20 ar
    34   22   31 1
    35   22   32 1
@<TRIPOS>MOLECULE
ZINC51153334
   37    39     0     0     0
SMALL
USER_CHARGES

@<TRIPOS>ATOM
      1 C1         -0.0167    1.3782    0.0096 C.ar      1 <0>        -0.0969
      2 C2          1.1707    2.0857    0.0021 C.ar      1 <0>        -0.0930
      3 C3          2.3778    1.4105   -0.0131 C.ar      1 <0>        -0.0901
      4 C4          2.3961    0.0274   -0.0207 C.ar      1 <0>        -0.0939
      5 C5          1.2082   -0.6793   -0.0132 C.ar      1 <0>        -0.0982
      6 C6          0.0021   -0.0041    0.0020 C.ar      1 <0>        -0.0640
      7 C7         -1.2928   -0.7750    0.0103 C.3       1 <0>        -0.0131
      8 C8         -1.7380   -1.0244   -1.4077 C.ar      1 <0>         0.3655
      9 N1         -2.5108   -0.1400   -2.0013 N.ar      1 <0>        -0.5557
     10 C9         -2.9272   -0.3158   -3.2534 C.ar      1 <0>         0.2123
     11 C10        -2.5352   -1.4433   -3.9318 C.ar      1 <0>        -0.2472
     12 C11        -1.7160   -2.3672   -3.2716 C.ar      1 <0>         0.4481
     13 N2         -1.3387   -2.1194   -2.0220 N.ar      1 <0>        -0.5575
     14 N3         -1.3006   -3.5221   -3.9144 N.pl3     1 <0>        -0.5592
     15 N4         -0.5015   -4.4173   -3.2617 N.3       1 <0>        -0.5961
     16 C12        -2.9409   -1.7236   -5.3520 C.3       1 <0>        -0.0657
     17 C13        -4.1402   -0.8618   -5.7452 C.3       1 <0>        -0.1188
     18 C14        -3.8280    0.5964   -5.3895 C.3       1 <0>        -0.1197
     19 C15        -3.8152    0.7321   -3.8675 C.3       1 <0>        -0.0715
     20 Br1         4.0026    2.3779   -0.0240 Br        1 <0>        -0.0526
     21 H1         -0.9592    1.9053    0.0260 H         1 <0>         0.1362
     22 H2          1.1559    3.1656    0.0077 H         1 <0>         0.1332
     23 H3          3.3384   -0.5003   -0.0329 H         1 <0>         0.1324
     24 H4          1.2224   -1.7592   -0.0191 H         1 <0>         0.1352
     25 H5         -1.1448   -1.7283    0.5176 H         1 <0>         0.1028
     26 H6         -2.0553   -0.1990    0.5345 H         1 <0>         0.1036
     27 H7         -1.5773   -3.6950   -4.8279 H         1 <0>         0.4133
     28 H8         -0.2820   -5.2045   -3.8534 H         1 <0>         0.3568
     29 H9          0.3392   -3.9728   -2.9246 H         1 <0>         0.3463
     30 H10        -2.1051   -1.5024   -6.0158 H         1 <0>         0.0727
     31 H11        -3.2060   -2.7763   -5.4499 H         1 <0>         0.0684
     32 H12        -4.3170   -0.9475   -6.8174 H         1 <0>         0.0727
     33 H13        -5.0233   -1.1914   -5.1979 H         1 <0>         0.0687
     34 H14        -2.8518    0.8701   -5.7898 H         1 <0>         0.0674
     35 H15        -4.5947    1.2479   -5.8088 H         1 <0>         0.0770
     36 H16        -4.8295    0.6132   -3.4866 H         1 <0>         0.0904
     37 H17        -3.4455    1.7212   -3.5971 H         1 <0>         0.0904
@<TRIPOS>BOND
     1    1    6 ar
     2    1    2 ar
     3    1   21 1
     4    2    3 ar
     5    2   22 1
     6    3    4 ar
     7    3   20 1
     8    4    5 ar
     9    4   23 1
    10    5    6 ar
    11    5   24 1
    12    6    7 1
    13    7    8 1
    14    7   25 1
    15    7   26 1
    16    8   13 ar
    17    8    9 ar
    18    9   10 ar
    19   10   19 1
    20   10   11 ar
    21   11   12 ar
    22   11   16 1
    23   12   13 ar
    24   12   14 1
    25   14   15 1
    26   14   27 1
    27   15   28 1
    28   15   29 1
    29   16   17 1
    30   16   30 1
    31   16   31 1
    32   17   18 1
    33   17   32 1
    34   17   33 1
    35   18   19 1
    36   18   34 1
    37   18   35 1
    38   19   36 1
    39   19   37 1
@<TRIPOS>MOLECULE
ZINC63062016
   35    36     0     0     0
SMALL
USER_CHARGES

@<TRIPOS>ATOM
      1 C1          0.1171    1.5374    0.0344 C.3       1 <0>        -0.1175
      2 C2          0.0707    0.0314    0.0030 C.ar      1 <0>        -0.0905
      3 C3          0.0781   -0.6324   -1.2049 C.ar      1 <0>        -0.0594
      4 C4          0.0352   -2.0269   -1.2331 C.ar      1 <0>        -0.0410
      5 C5         -0.0151   -2.7447   -0.0370 C.ar      1 <0>        -0.0866
      6 C6         -0.0221   -2.0746    1.1669 C.ar      1 <0>        -0.1166
      7 C7          0.0264   -0.6862    1.1914 C.ar      1 <0>         0.0942
      8 O1          0.0254   -0.0292    2.3798 O.3       1 <0>        -0.2479
      9 C8         -1.1575    0.4575    2.8387 C.ar      1 <0>         0.1366
     10 C9         -2.3356    0.1710    2.1636 C.ar      1 <0>        -0.1839
     11 C10        -3.5368    0.6662    2.6320 C.ar      1 <0>        -0.0571
     12 C11        -3.5660    1.4480    3.7733 C.ar      1 <0>        -0.1182
     13 C12        -2.3929    1.7348    4.4479 C.ar      1 <0>        -0.0564
     14 C13        -1.1899    1.2367    3.9861 C.ar      1 <0>        -0.1025
     15 C14         0.0871    1.5449    4.7246 C.3       1 <0>        -0.1089
     16 Br1        -5.2120    2.1257    4.4115 Br        1 <0>        -0.0467
     17 C15         0.0424   -2.7428   -2.5276 C.2       1 <0>         0.4095
     18 N1          0.0888   -2.0721   -3.6418 N.2       1 <0>        -0.4125
     19 O2          0.0957   -2.7574   -4.8809 O.3       1 <0>        -0.4199
     20 N2         -0.0003   -4.1267   -2.5538 N.pl3     1 <0>        -0.8687
     21 H1          1.1552    1.8685    0.0610 H         1 <0>         0.0810
     22 H2         -0.3683    1.9345   -0.8571 H         1 <0>         0.0751
     23 H3         -0.4023    1.8984    0.9222 H         1 <0>         0.0692
     24 H4          0.1166   -0.0739   -2.1285 H         1 <0>         0.1473
     25 H5         -0.0487   -3.8240   -0.0552 H         1 <0>         0.1353
     26 H6         -0.0610   -2.6294    2.0928 H         1 <0>         0.1414
     27 H7         -2.3132   -0.4386    1.2723 H         1 <0>         0.1367
     28 H8         -4.4538    0.4435    2.1068 H         1 <0>         0.1367
     29 H9         -2.4180    2.3452    5.3385 H         1 <0>         0.1418
     30 H10         0.5210    2.4645    4.3320 H         1 <0>         0.0739
     31 H11        -0.1278    1.6687    5.7860 H         1 <0>         0.0705
     32 H12         0.7918    0.7243    4.5899 H         1 <0>         0.0744
     33 H13         0.1315   -2.1752   -5.6522 H         1 <0>         0.4029
     34 H14        -0.0349   -4.6266   -1.7232 H         1 <0>         0.3968
     35 H15         0.0045   -4.5961   -3.4026 H         1 <0>         0.4109
@<TRIPOS>BOND
     1    1    2 1
     2    1   21 1
     3    1   22 1
     4    1   23 1
     5    2    7 ar
     6    2    3 ar
     7    3    4 ar
     8    3   24 1
     9    4    5 ar
    10    4   17 1
    11    5    6 ar
    12    5   25 1
    13    6    7 ar
    14    6   26 1
    15    7    8 1
    16    8    9 1
    17    9   14 ar
    18    9   10 ar
    19   10   11 ar
    20   10   27 1
    21   11   12 ar
    22   11   28 1
    23   12   13 ar
    24   12   16 1
    25   13   14 ar
    26   13   29 1
    27   14   15 1
    28   15   30 1
    29   15   31 1
    30   15   32 1
    31   17   18 2
    32   17   20 1
    33   18   19 1
    34   19   33 1
    35   20   34 1
    36   20   35 1
@<TRIPOS>MOLECULE
ZINC01156412
   44    47     0     0     0
SMALL
USER_CHARGES
N-(3-carbamoyl-4,5,6,7-tetrahydrobenzothiophen-2-yl)-5-(4-chlorophenyl)-furan-2-carboxamide
@<TRIPOS>ATOM
      1 C1          5.4419    9.2055   -0.0100 C.ar      1 <0>        -0.0757
      2 C2          6.7052    9.7584   -0.0150 C.ar      1 <0>        -0.1063
      3 C3          7.8224    8.9399   -0.0303 C.ar      1 <0>        -0.0221
      4 C4          7.6789    7.5624   -0.0359 C.ar      1 <0>        -0.1072
      5 C5          6.4211    6.9972   -0.0257 C.ar      1 <0>        -0.0823
      6 C6          5.2905    7.8171   -0.0097 C.ar      1 <0>        -0.0287
      7 C7          3.9406    7.2184    0.0013 C.2       1 <0>         0.0764
      8 C8          2.7632    7.9101    0.0171 C.2       1 <0>        -0.1985
      9 C9          1.7317    6.9660    0.0165 C.2       1 <0>        -0.0897
     10 C10         2.3293    5.7240    0.0097 C.2       1 <0>        -0.0868
     11 O1          3.6672    5.9030   -0.0030 O.3       1 <0>        -0.1567
     12 C11         1.6341    4.4353    0.0099 C.2       1 <0>         0.6044
     13 O2          0.4174    4.4001    0.0217 O.2       1 <0>        -0.4771
     14 N1          2.3414    3.2881   -0.0031 N.am      1 <0>        -0.6117
     15 C12         1.6839    2.0692   -0.0029 C.2       1 <0>         0.0678
     16 C13         2.2316    0.7936   -0.0149 C.2       1 <0>        -0.2219
     17 C14         1.3124   -0.3317   -0.0120 C.2       1 <0>        -0.0661
     18 C15         0.0021   -0.0041    0.0020 C.2       1 <0>        -0.2039
     19 S1         -0.0219    1.7661    0.0118 S.3       1 <0>         0.2337
     20 C16        -1.1639   -0.9439    0.0069 C.3       1 <0>        -0.0362
     21 C17        -0.6607   -2.3411   -0.3841 C.3       1 <0>        -0.1158
     22 C18         0.5898   -2.6632    0.4392 C.3       1 <0>        -0.1187
     23 C19         1.7567   -1.7891   -0.0237 C.3       1 <0>        -0.0607
     24 C20         3.6831    0.5896   -0.0305 C.2       1 <0>         0.5834
     25 O3          4.2753    0.5107   -1.0910 O.2       1 <0>        -0.5314
     26 N2          4.3621    0.4893    1.1294 N.am      1 <0>        -0.8478
     27 Cl1         9.4093    9.6437   -0.0432 Cl        1 <0>        -0.0578
     28 H1          4.5714    9.8447   -0.0023 H         1 <0>         0.1426
     29 H2          6.8237   10.8319   -0.0107 H         1 <0>         0.1444
     30 H3          8.5540    6.9295   -0.0486 H         1 <0>         0.1421
     31 H4          6.3104    5.9229   -0.0304 H         1 <0>         0.1392
     32 H5          2.6500    8.9841    0.0244 H         1 <0>         0.1666
     33 H6          0.6713    7.1706    0.0226 H         1 <0>         0.1711
     34 H7          3.3110    3.3162   -0.0125 H         1 <0>         0.4236
     35 H8         -1.6040   -0.9778    1.0035 H         1 <0>         0.0839
     36 H9         -1.9101   -0.6071   -0.7127 H         1 <0>         0.0823
     37 H10        -1.4350   -3.0796   -0.1765 H         1 <0>         0.0748
     38 H11        -0.4156   -2.3572   -1.4460 H         1 <0>         0.0691
     39 H12         0.3891   -2.4708    1.4931 H         1 <0>         0.0673
     40 H13         0.8505   -3.7132    0.3060 H         1 <0>         0.0707
     41 H14         2.6015   -1.9190    0.6528 H         1 <0>         0.0722
     42 H15         2.0499   -2.0758   -1.0336 H         1 <0>         0.0798
     43 H16         3.8902    0.5522    1.9746 H         1 <0>         0.4038
     44 H17         5.3226    0.3543    1.1191 H         1 <0>         0.4037
@<TRIPOS>BOND
     1    1    6 ar
     2    1    2 ar
     3    1   28 1
     4    2    3 ar
     5    2   29 1
     6    3    4 ar
     7    3   27 1
     8    4    5 ar
     9    4   30 1
    10    5    6 ar
    11    5   31 1
    12    6    7 1
    13    7   11 1
    14    7    8 2
    15    8    9 1
    16    8   32 1
    17    9   10 2
    18    9   33 1
    19   10   11 1
    20   10   12 1
    21   12   13 2
    22   12   14 am
    23   14   15 1
    24   14   34 1
    25   15   19 1
    26   15   16 2
    27   16   17 1
    28   16   24 1
    29   17   23 1
    30   17   18 2
    31   18   19 1
    32   18   20 1
    33   20   21 1
    34   20   35 1
    35   20   36 1
    36   21   22 1
    37   21   37 1
    38   21   38 1
    39   22   23 1
    40   22   39 1
    41   22   40 1
    42   23   41 1
    43   23   42 1
    44   24   25 2
    45   24   26 am
    46   26   43 1
    47   26   44 1
@<TRIPOS>MOLECULE
ZINC13639786
   50    53     0     0     0
SMALL
USER_CHARGES
propyl (3aR,4R,9bR)-4-(2,4-dihydroxyphenyl)-3a,4,5,9b-tetrahydro-3H-cyclopenta[c]quinoline-8-carboxylate
@<TRIPOS>ATOM
      1 C1         -7.4079    3.7735    0.0574 C.3       1 <0>        -0.1513
      2 C2         -6.1095    2.9642    0.0483 C.3       1 <0>        -0.1239
      3 C3         -4.9137    3.9187    0.0482 C.3       1 <0>         0.0671
      4 O1         -3.6815    3.1507    0.0396 O.3       1 <0>        -0.3568
      5 C4         -2.5271    3.8461    0.0384 C.2       1 <0>         0.5147
      6 O2         -2.5498    5.0611    0.0444 O.2       1 <0>        -0.5159
      7 C5         -1.2373    3.1331    0.0299 C.ar      1 <0>        -0.1887
      8 C6         -1.2071    1.7348    0.0172 C.ar      1 <0>        -0.0116
      9 C7         -0.0126    1.0758    0.0080 C.ar      1 <0>        -0.2095
     10 C8          1.1886    1.7818    0.0003 C.ar      1 <0>         0.2597
     11 C9          1.1632    3.1845    0.0198 C.ar      1 <0>        -0.1535
     12 C10        -0.0372    3.8511    0.0286 C.ar      1 <0>         0.0026
     13 C11         2.4626    3.8902    0.0382 C.3       1 <0>        -0.0245
     14 H1          2.8403    3.8762    1.0605 H         1 <0>         0.0830
     15 C12         2.6177    5.2697   -0.4893 C.2       1 <0>        -0.1540
     16 C13         3.8484    5.4040   -0.9693 C.2       1 <0>        -0.1628
     17 C14         4.6124    4.0861   -0.8259 C.3       1 <0>        -0.0813
     18 C15         3.4674    3.0645   -0.8198 C.3       1 <0>        -0.0981
     19 H2          3.0891    2.8813   -1.8255 H         1 <0>         0.0926
     20 C16         3.6928    1.7759   -0.0495 C.3       1 <0>         0.2146
     21 H3          4.0033    1.9974    0.9716 H         1 <0>         0.0869
     22 N1          2.3899    1.0766   -0.0496 N.pl3     1 <0>        -0.7354
     23 C17         4.7355    0.9336   -0.7383 C.ar      1 <0>        -0.1305
     24 C18         4.3495   -0.0614   -1.6163 C.ar      1 <0>        -0.0804
     25 C19         5.3031   -0.8321   -2.2529 C.ar      1 <0>        -0.1499
     26 C20         6.6513   -0.6157   -2.0039 C.ar      1 <0>         0.1267
     27 C21         7.0408    0.3782   -1.1197 C.ar      1 <0>        -0.1688
     28 C22         6.0820    1.1538   -0.4860 C.ar      1 <0>         0.1402
     29 O3          6.4608    2.1293    0.3811 O.3       1 <0>        -0.4888
     30 O4          7.5887   -1.3773   -2.6269 O.3       1 <0>        -0.4962
     31 H4         -7.4410    4.3974    0.9505 H         1 <0>         0.0585
     32 H5         -7.4480    4.4060   -0.8294 H         1 <0>         0.0585
     33 H6         -8.2599    3.0935    0.0574 H         1 <0>         0.0658
     34 H7         -6.0765    2.3403   -0.8448 H         1 <0>         0.0740
     35 H8         -6.0694    2.3317    0.9351 H         1 <0>         0.0740
     36 H9         -4.9467    4.5426    0.9414 H         1 <0>         0.0702
     37 H10        -4.9538    4.5512   -0.8386 H         1 <0>         0.0702
     38 H11        -2.1311    1.1757    0.0190 H         1 <0>         0.1367
     39 H12         0.0021   -0.0041    0.0020 H         1 <0>         0.1285
     40 H13        -0.0546    4.9310    0.0342 H         1 <0>         0.1362
     41 H14         1.8565    6.0358   -0.4838 H         1 <0>         0.1319
     42 H15         4.2508    6.3100   -1.3979 H         1 <0>         0.1297
     43 H16         5.2756    3.9246   -1.6757 H         1 <0>         0.0710
     44 H17         5.1673    4.0564    0.1118 H         1 <0>         0.0925
     45 H18         2.3708    0.1074   -0.0850 H         1 <0>         0.4027
     46 H19         3.3008   -0.2340   -1.8082 H         1 <0>         0.1330
     47 H20         4.9992   -1.6061   -2.9421 H         1 <0>         0.1342
     48 H21         8.0894    0.5483   -0.9249 H         1 <0>         0.1388
     49 H22         6.5406    1.8315    1.2976 H         1 <0>         0.3923
     50 H23         7.8306   -2.1781   -2.1419 H         1 <0>         0.3950
@<TRIPOS>BOND
     1    1    2 1
     2    1   31 1
     3    1   32 1
     4    1   33 1
     5    2    3 1
     6    2   34 1
     7    2   35 1
     8    3    4 1
     9    3   36 1
    10    3   37 1
    11    4    5 1
    12    5    6 2
    13    5    7 1
    14    7   12 ar
    15    7    8 ar
    16    8    9 ar
    17    8   38 1
    18    9   10 ar
    19    9   39 1
    20   10   22 1
    21   10   11 ar
    22   11   12 ar
    23   11   13 1
    24   12   40 1
    25   13   14 1
    26   13   18 1
    27   13   15 1
    28   15   16 2
    29   15   41 1
    30   16   17 1
    31   16   42 1
    32   17   18 1
    33   17   43 1
    34   17   44 1
    35   18   19 1
    36   18   20 1
    37   20   21 1
    38   20   22 1
    39   20   23 1
    40   22   45 1
    41   23   28 ar
    42   23   24 ar
    43   24   25 ar
    44   24   46 1
    45   25   26 ar
    46   25   47 1
    47   26   27 ar
    48   26   30 1
    49   27   28 ar
    50   27   48 1
    51   28   29 1
    52   29   49 1
    53   30   50 1
@<TRIPOS>MOLECULE
ZINC28535332
   47    50     0     0     0
SMALL
USER_CHARGES
2-amino-N-(2,3-dimethylphenyl)-1-(thiophene-2-carbonyl)indole-3-carboxamide
@<TRIPOS>ATOM
      1 C1          3.0655   12.5763    3.2364 C.3       1 <0>        -0.1149
      2 C2          2.8264   11.6386    2.0811 C.ar      1 <0>        -0.0671
      3 C3          3.6537   11.6820    0.9736 C.ar      1 <0>        -0.1389
      4 C4          3.4378   10.8234   -0.0884 C.ar      1 <0>        -0.1001
      5 C5          2.3950    9.9185   -0.0459 C.ar      1 <0>        -0.1388
      6 C6          1.5628    9.8721    1.0648 C.ar      1 <0>         0.1587
      7 C7          1.7787   10.7403    2.1274 C.ar      1 <0>        -0.1213
      8 C8          0.8740   10.6980    3.3319 C.3       1 <0>        -0.1105
      9 N1          0.5061    8.9571    1.1110 N.am      1 <0>        -0.6759
     10 C9         -0.0290    8.4873   -0.0333 C.2       1 <0>         0.6089
     11 O1          0.3380    8.9335   -1.1053 O.2       1 <0>        -0.5151
     12 C10        -1.0495    7.4426    0.0124 C.2       1 <0>        -0.3229
     13 C11        -2.5109    7.6364    0.0953 C.ar      1 <0>        -0.0159
     14 C12        -3.3288    8.7617    0.1517 C.ar      1 <0>        -0.0924
     15 C13        -4.6972    8.6086    0.2250 C.ar      1 <0>        -0.1169
     16 C14        -5.2579    7.3410    0.2420 C.ar      1 <0>        -0.1100
     17 C15        -4.4577    6.2186    0.1861 C.ar      1 <0>        -0.1100
     18 C16        -3.0772    6.3533    0.1073 C.ar      1 <0>         0.0895
     19 N2         -2.0422    5.4304    0.0458 N.am      1 <0>        -0.5136
     20 C17        -0.8376    6.0725   -0.0139 C.2       1 <0>         0.4535
     21 N3          0.3892    5.4580   -0.0878 N.pl3     1 <0>        -0.8657
     22 C18        -2.2029    4.0922    0.0400 C.2       1 <0>         0.6365
     23 O2         -2.2427    3.4889   -1.0157 O.2       1 <0>        -0.4183
     24 C19        -2.3295    3.3647    1.3040 C.2       1 <0>        -0.2883
     25 C20        -2.5877    2.0182    1.5160 C.2       1 <0>        -0.0457
     26 C21        -2.6592    1.5936    2.8187 C.2       1 <0>        -0.1872
     27 C22        -2.4676    2.4916    3.8211 C.2       1 <0>        -0.1687
     28 S1         -2.1852    3.9772    2.9734 S.3       1 <0>         0.1965
     29 H1          3.9371   13.2112    3.0190 H         1 <0>         0.0655
     30 H2          3.2556   11.9925    4.1491 H         1 <0>         0.0695
     31 H3          2.1783   13.2096    3.3843 H         1 <0>         0.0698
     32 H4          4.4700   12.3883    0.9381 H         1 <0>         0.1205
     33 H5          4.0854   10.8600   -0.9519 H         1 <0>         0.1231
     34 H6          2.2273    9.2476   -0.8755 H         1 <0>         0.1426
     35 H7          0.1049    9.9252    3.1858 H         1 <0>         0.0589
     36 H8          0.3899   11.6772    3.4614 H         1 <0>         0.0730
     37 H9          1.4668   10.4607    4.2276 H         1 <0>         0.0710
     38 H10         0.1117    8.6209    2.0813 H         1 <0>         0.4328
     39 H11        -2.8934    9.7499    0.1386 H         1 <0>         0.1241
     40 H12        -5.3345    9.4794    0.2689 H         1 <0>         0.1280
     41 H13        -6.3307    7.2310    0.2992 H         1 <0>         0.1299
     42 H14        -4.9046    5.2355    0.1992 H         1 <0>         0.1178
     43 H15         0.4543    4.3600   -0.1031 H         1 <0>         0.4242
     44 H16         1.3062    6.0640   -0.1316 H         1 <0>         0.4495
     45 H17        -2.7300    1.3349    0.6918 H         1 <0>         0.1510
     46 H18        -2.8609    0.5570    3.0450 H         1 <0>         0.1466
     47 H19        -2.4865    2.3208    4.8873 H         1 <0>         0.1966
@<TRIPOS>BOND
     1    1    2 1
     2    1   29 1
     3    1   30 1
     4    1   31 1
     5    2    7 ar
     6    2    3 ar
     7    3    4 ar
     8    3   32 1
     9    4    5 ar
    10    4   33 1
    11    5    6 ar
    12    5   34 1
    13    6    7 ar
    14    6    9 1
    15    7    8 1
    16    8   35 1
    17    8   36 1
    18    8   37 1
    19    9   10 am
    20    9   38 1
    21   10   11 2
    22   10   12 1
    23   12   20 2
    24   12   13 1
    25   13   18 ar
    26   13   14 ar
    27   14   15 ar
    28   14   39 1
    29   15   16 ar
    30   15   40 1
    31   16   17 ar
    32   16   41 1
    33   17   18 ar
    34   17   42 1
    35   18   19 1
    36   19   20 1
    37   19   22 am
    38   20   21 1
    39   21   43 1
    40   21   44 1
    41   22   23 2
    42   22   24 1
    43   24   28 1
    44   24   25 2
    45   25   26 1
    46   25   45 1
    47   26   27 2
    48   26   46 1
    49   27   28 1
    50   27   47 1
@<TRIPOS>MOLECULE
ZINC18200383
   42    45     0     0     0
SMALL
USER_CHARGES

@<TRIPOS>ATOM
      1 C1         -0.0187    1.5258    0.0104 C.3       1 <0>        -0.1421
      2 C2          0.0021   -0.0041    0.0020 C.3       1 <0>        -0.0518
      3 C3         -1.4303   -0.5394    0.0423 C.3       1 <0>        -0.0899
      4 C4         -1.4079   -2.0507    0.0725 C.2       1 <0>         0.2339
      5 C5         -0.3975   -2.7148    0.6742 C.2       1 <0>        -0.2705
      6 C6         -0.3478   -4.2260    0.7449 C.3       1 <0>         0.0916
      7 H1          0.6540   -4.5686    0.4859 H         1 <0>         0.1086
      8 C7         -1.3408   -4.8095   -0.2198 C.2       1 <0>        -0.2712
      9 C8         -2.3234   -4.0567   -0.8065 C.2       1 <0>         0.3292
     10 N1         -3.0405   -4.8681   -1.6065 N.pl3     1 <0>        -0.4614
     11 H2         -3.8024   -4.6096   -2.1484 H         1 <0>         0.4447
     12 N2         -2.4873   -6.1558   -1.5165 N.2       1 <0>        -0.2922
     13 H3         -0.9930   -7.6562    0.4340 H         1 <0>         0.4007
     14 C9         -1.4696   -6.1149   -0.6845 C.2       1 <0>         0.3037
     15 O1         -0.6796   -7.1663   -0.3385 O.3       1 <0>        -0.4503
     16 N3         -2.4511   -2.6987   -0.5404 N.pl3     1 <0>        -0.6302
     17 C10        -0.6853   -4.6741    2.1435 C.ar      1 <0>        -0.0366
     18 C11        -1.9140   -4.3587    2.6929 C.ar      1 <0>        -0.1041
     19 C12        -2.2239   -4.7701    3.9756 C.ar      1 <0>        -0.1096
     20 C13        -1.3052   -5.4972    4.7098 C.ar      1 <0>        -0.1185
     21 C14        -0.0766   -5.8129    4.1614 C.ar      1 <0>        -0.0937
     22 C15         0.2319   -5.4059    2.8756 C.ar      1 <0>        -0.0728
     23 Br1         1.9101   -5.8438    2.1220 Br        1 <0>        -0.0341
     24 C16         0.6726   -2.0186    1.2642 C.2       1 <0>         0.3977
     25 O2          1.5622   -2.6459    1.8050 O.2       1 <0>        -0.4520
     26 C17         0.7423   -0.5175    1.2418 C.3       1 <0>        -0.1590
     27 C18         0.7049   -0.5033   -1.2620 C.3       1 <0>        -0.1527
     28 H4          1.0039    1.9031    0.0027 H         1 <0>         0.0652
     29 H5         -0.5459    1.8868   -0.8726 H         1 <0>         0.0611
     30 H6         -0.5289    1.8773    0.9072 H         1 <0>         0.0609
     31 H7         -1.9321   -0.1662    0.9350 H         1 <0>         0.1009
     32 H8         -1.9686   -0.2023   -0.8435 H         1 <0>         0.0907
     33 H9         -3.2592   -2.2197   -0.7820 H         1 <0>         0.4190
     34 H10        -2.6318   -3.7905    2.1200 H         1 <0>         0.1177
     35 H11        -3.1838   -4.5232    4.4046 H         1 <0>         0.1243
     36 H12        -1.5476   -5.8181    5.7121 H         1 <0>         0.1288
     37 H13         0.6409   -6.3809    4.7349 H         1 <0>         0.1315
     38 H14         1.7846   -0.2011    1.2017 H         1 <0>         0.0981
     39 H15         0.2718   -0.1170    2.1397 H         1 <0>         0.0996
     40 H16         1.7281   -0.1280   -1.2811 H         1 <0>         0.0643
     41 H17         0.7176   -1.5933   -1.2642 H         1 <0>         0.0608
     42 H18         0.1697   -0.1444   -2.1411 H         1 <0>         0.0597
@<TRIPOS>BOND
     1    1    2 1
     2    1   28 1
     3    1   29 1
     4    1   30 1
     5    2   26 1
     6    2    3 1
     7    2   27 1
     8    3    4 1
     9    3   31 1
    10    3   32 1
    11    4   16 1
    12    4    5 2
    13    5    6 1
    14    5   24 1
    15    6    7 1
    16    6    8 1
    17    6   17 1
    18    8   14 1
    19    8    9 2
    20    9   16 1
    21    9   10 1
    22   10   12 1
    23   10   11 1
    24   12   14 2
    25   13   15 1
    26   14   15 1
    27   16   33 1
    28   17   22 ar
    29   17   18 ar
    30   18   19 ar
    31   18   34 1
    32   19   20 ar
    33   19   35 1
    34   20   21 ar
    35   20   36 1
    36   21   22 ar
    37   21   37 1
    38   22   23 1
    39   24   25 2
    40   24   26 1
    41   26   38 1
    42   26   39 1
    43   27   40 1
    44   27   41 1
    45   27   42 1
@<TRIPOS>MOLECULE
ZINC66976459
   52    55     0     0     0
SMALL
USER_CHARGES

@<TRIPOS>ATOM
      1 C1          0.0980    0.8403   -1.0274 C.ar      1 <0>        -0.1118
      2 C2          1.2931    1.5268   -1.1346 C.ar      1 <0>        -0.1157
      3 C3          2.4922    0.8515   -1.0041 C.ar      1 <0>        -0.0987
      4 C4          2.4962   -0.5102   -0.7659 C.ar      1 <0>        -0.0998
      5 C5          1.3012   -1.1965   -0.6578 C.ar      1 <0>        -0.1044
      6 C6          0.1021   -0.5215   -0.7897 C.ar      1 <0>        -0.1163
      7 C7          3.8035   -1.2465   -0.6246 C.3       1 <0>         0.2955
      8 H1          4.5957   -0.5375   -0.3842 H         1 <0>         0.1252
      9 C8          4.1297   -1.9441   -1.9200 C.2       1 <0>        -0.0207
     10 C9          4.9919   -1.5050   -2.8544 C.2       1 <0>        -0.1913
     11 C10         4.9902   -2.4619   -3.8952 C.2       1 <0>        -0.2117
     12 C11         4.1270   -3.4284   -3.5346 C.2       1 <0>        -0.0413
     13 O1          3.6131   -3.1124   -2.3347 O.3       1 <0>        -0.1693
     14 N1          3.6924   -2.2371    0.4490 N.am      1 <0>        -0.7377
     15 C12         4.7971   -2.6518    1.1002 C.2       1 <0>         0.7079
     16 O2          5.8859   -2.2038    0.7967 O.2       1 <0>        -0.5834
     17 N2          4.6949   -3.5632    2.0878 N.am      1 <0>        -0.7369
     18 C13         5.8957   -4.0140    2.7957 C.3       1 <0>         0.1162
     19 C14         5.5244   -5.1375    3.7656 C.3       1 <0>         0.1710
     20 C15         4.8654   -6.2758    2.9892 C.3       1 <0>        -0.1047
     21 C16         4.7005   -7.4729    3.9328 C.3       1 <0>        -0.1177
     22 C17         6.0846   -8.0467    4.2292 C.3       1 <0>        -0.0866
     23 C18         7.0235   -6.9583    4.6797 C.ar      1 <0>        -0.0533
     24 C19         6.7681   -5.6226    4.4634 C.ar      1 <0>        -0.1114
     25 C20         7.6790   -4.6690    4.8987 C.ar      1 <0>        -0.1130
     26 C21         8.8351   -5.0490    5.5488 C.ar      1 <0>        -0.1230
     27 C22         9.0896   -6.3895    5.7694 C.ar      1 <0>        -0.1083
     28 C23         8.1868   -7.3386    5.3359 C.ar      1 <0>        -0.1246
     29 O3          4.6041   -4.6363    4.7372 O.3       1 <0>        -0.5465
     30 H2         -0.8389    1.3686   -1.1249 H         1 <0>         0.1252
     31 H3          1.2899    2.5906   -1.3207 H         1 <0>         0.1273
     32 H4          3.4258    1.3877   -1.0886 H         1 <0>         0.1274
     33 H5          1.3043   -2.2604   -0.4720 H         1 <0>         0.1211
     34 H6         -0.8316   -1.0577   -0.7056 H         1 <0>         0.1258
     35 H7          5.5735   -0.5957   -2.8171 H         1 <0>         0.1479
     36 H8          5.5704   -2.4239   -4.8054 H         1 <0>         0.1487
     37 H9          3.8904   -4.3109   -4.1104 H         1 <0>         0.2018
     38 H10         2.8238   -2.5946    0.6911 H         1 <0>         0.3995
     39 H11         3.8263   -3.9206    2.3300 H         1 <0>         0.4008
     40 H12         6.6255   -4.3826    2.0749 H         1 <0>         0.0802
     41 H13         6.3238   -3.1803    3.3523 H         1 <0>         0.0708
     42 H14         3.8882   -5.9560    2.6276 H         1 <0>         0.0753
     43 H15         5.4954   -6.5575    2.1454 H         1 <0>         0.0808
     44 H16         4.2318   -7.1467    4.8613 H         1 <0>         0.0764
     45 H17         4.0821   -8.2336    3.4563 H         1 <0>         0.0711
     46 H18         6.0018   -8.7978    5.0147 H         1 <0>         0.0781
     47 H19         6.4811   -8.5129    3.3272 H         1 <0>         0.0788
     48 H20         7.4809   -3.6214    4.7267 H         1 <0>         0.1232
     49 H21         9.5387   -4.3015    5.8845 H         1 <0>         0.1247
     50 H22         9.9922   -6.6931    6.2789 H         1 <0>         0.1244
     51 H23         8.3865   -8.3859    5.5083 H         1 <0>         0.1236
     52 H24         4.9498   -3.9035    5.2651 H         1 <0>         0.3791
@<TRIPOS>BOND
     1    1    6 ar
     2    1    2 ar
     3    1   30 1
     4    2    3 ar
     5    2   31 1
     6    3    4 ar
     7    3   32 1
     8    4    5 ar
     9    4    7 1
    10    5    6 ar
    11    5   33 1
    12    6   34 1
    13    7    8 1
    14    7    9 1
    15    7   14 1
    16    9   13 1
    17    9   10 2
    18   10   11 1
    19   10   35 1
    20   11   12 2
    21   11   36 1
    22   12   13 1
    23   12   37 1
    24   14   15 am
    25   14   38 1
    26   15   16 2
    27   15   17 am
    28   17   18 1
    29   17   39 1
    30   18   19 1
    31   18   40 1
    32   18   41 1
    33   19   24 1
    34   19   20 1
    35   19   29 1
    36   20   21 1
    37   20   42 1
    38   20   43 1
    39   21   22 1
    40   21   44 1
    41   21   45 1
    42   22   23 1
    43   22   46 1
    44   22   47 1
    45   23   28 ar
    46   23   24 ar
    47   24   25 ar
    48   25   26 ar
    49   25   48 1
    50   26   27 ar
    51   26   49 1
    52   27   28 ar
    53   27   50 1
    54   28   51 1
    55   29   52 1
@<TRIPOS>MOLECULE
ZINC16130921
   35    36     0     0     0
SMALL
USER_CHARGES
N'-[4-chloro-2-(trifluoromethyl)phenyl]sulfonyl-2-hydroxy-benzohydrazide
@<TRIPOS>ATOM
      1 C1          0.4868   -2.7899    0.0883 C.ar      1 <0>        -0.1353
      2 C2          0.4131   -2.1030   -1.1127 C.ar      1 <0>        -0.0698
      3 C3          0.2471   -0.7325   -1.1244 C.ar      1 <0>        -0.1530
      4 C4          0.1645   -0.0319    0.0699 C.ar      1 <0>         0.1776
      5 C5          0.2386   -0.7230    1.2868 C.ar      1 <0>        -0.1648
      6 C6          0.4008   -2.1106    1.2840 C.ar      1 <0>        -0.0724
      7 C7          0.1464    0.0107    2.5634 C.2       1 <0>         0.5675
      8 O1          0.1000    1.2257    2.5644 O.2       1 <0>        -0.4953
      9 N1          0.1135   -0.6659    3.7286 N.am      1 <0>        -0.5105
     10 N2         -0.0796    0.0227    4.9333 N.pl3     1 <0>        -0.8942
     11 S1         -1.3283   -0.3978    5.9365 S.o2      1 <0>         2.6808
     12 O2         -1.1077    0.2802    7.1656 O.2       1 <0>        -0.9123
     13 O3         -2.5237   -0.2418    5.1842 O.2       1 <0>        -0.9239
     14 C8         -1.1673   -2.1194    6.2751 C.ar      1 <0>        -0.6457
     15 C9         -2.1210   -3.0069    5.8119 C.ar      1 <0>        -0.0020
     16 C10        -1.9951   -4.3574    6.0768 C.ar      1 <0>        -0.0966
     17 C11        -0.9145   -4.8213    6.8061 C.ar      1 <0>         0.0156
     18 C12         0.0391   -3.9328    7.2695 C.ar      1 <0>        -0.0811
     19 C13        -0.0848   -2.5829    6.9987 C.ar      1 <0>        -0.0742
     20 C14         0.9578   -1.6157    7.4975 C.3       1 <0>         0.4819
     21 F1          2.0084   -2.3261    8.0881 F         1 <0>        -0.1643
     22 F2          1.4482   -0.8643    6.4242 F         1 <0>        -0.1675
     23 F3          0.3845   -0.7589    8.4432 F         1 <0>        -0.1351
     24 Cl1        -0.7560   -6.5175    7.1397 Cl        1 <0>        -0.0285
     25 O4          0.0072    1.3154    0.0599 O.3       1 <0>        -0.4779
     26 H1          0.6118   -3.8626    0.0872 H         1 <0>         0.1349
     27 H2          0.4810   -2.6435   -2.0453 H         1 <0>         0.1355
     28 H3          0.1857   -0.2047   -2.0647 H         1 <0>         0.1402
     29 H4          0.4584   -2.6502    2.2178 H         1 <0>         0.1275
     30 H5          0.2236   -1.6296    3.7331 H         1 <0>         0.4161
     31 H6          0.5181    0.7458    5.1798 H         1 <0>         0.4346
     32 H7         -2.9644   -2.6447    5.2427 H         1 <0>         0.1698
     33 H8         -2.7398   -5.0506    5.7144 H         1 <0>         0.1601
     34 H9          0.8829   -4.2944    7.8385 H         1 <0>         0.1625
     35 H10         0.8389    1.8086    0.0619 H         1 <0>         0.3998
@<TRIPOS>BOND
     1    1    6 ar
     2    1    2 ar
     3    1   26 1
     4    2    3 ar
     5    2   27 1
     6    3    4 ar
     7    3   28 1
     8    4    5 ar
     9    4   25 1
    10    5    6 ar
    11    5    7 1
    12    6   29 1
    13    7    8 2
    14    7    9 am
    15    9   10 1
    16    9   30 1
    17   10   11 1
    18   10   31 1
    19   11   12 2
    20   11   13 2
    21   11   14 1
    22   14   19 ar
    23   14   15 ar
    24   15   16 ar
    25   15   32 1
    26   16   17 ar
    27   16   33 1
    28   17   18 ar
    29   17   24 1
    30   18   19 ar
    31   18   34 1
    32   19   20 1
    33   20   21 1
    34   20   22 1
    35   20   23 1
    36   25   35 1
@<TRIPOS>MOLECULE
ZINC20990040
   45    46     0     0     0
SMALL
USER_CHARGES
[(1R)-1-methyl-2-[[(1R,2R)-2-methylcyclohexyl]amino]-2-oxo-ethyl] 4-amino-3,5,6-trichloro-pyridine-2-carboxylate
@<TRIPOS>ATOM
      1 C1         -9.7811    1.9836   -0.2537 C.3       1 <0>        -0.1497
      2 C2         -9.5963    1.8274    1.2571 C.3       1 <0>        -0.0955
      3 H1         -9.6404    0.7611    1.5236 H         1 <0>         0.0768
      4 C3        -10.7087    2.5822    1.9877 C.3       1 <0>        -0.1130
      5 C4        -10.5240    2.4259    3.4984 C.3       1 <0>        -0.1229
      6 C5         -9.1654    2.9980    3.9080 C.3       1 <0>        -0.1184
      7 C6         -8.0530    2.2432    3.1774 C.3       1 <0>        -0.1301
      8 C7         -8.2377    2.3994    1.6666 C.3       1 <0>         0.1557
      9 H2         -8.1584    3.4567    1.3738 H         1 <0>         0.0894
     10 N1         -7.1726    1.6767    0.9671 N.am      1 <0>        -0.7329
     11 C8         -5.9825    2.2720    0.7528 C.2       1 <0>         0.5195
     12 O1         -5.7934    3.4060    1.1391 O.2       1 <0>        -0.5123
     13 C9         -4.8869    1.5285    0.0332 C.3       1 <0>         0.0679
     14 H3         -4.6538    0.5941    0.5647 H         1 <0>         0.1140
     15 C10        -5.3185    1.2544   -1.4088 C.3       1 <0>        -0.1658
     16 O2         -3.6771    2.3315    0.0319 O.3       1 <0>        -0.3019
     17 C11        -2.5039    1.6698    0.0228 C.2       1 <0>         0.5233
     18 O3         -2.4917    0.4554    0.0161 O.2       1 <0>        -0.4693
     19 C12        -1.2303    2.4223    0.0210 C.ar      1 <0>         0.1692
     20 C13        -0.0215    1.7317    0.0116 C.ar      1 <0>        -0.1127
     21 C14         1.1710    2.4566    0.0041 C.ar      1 <0>         0.2938
     22 C15         1.0994    3.8484    0.0123 C.ar      1 <0>        -0.1393
     23 C16        -0.1430    4.4629    0.0275 C.ar      1 <0>         0.2283
     24 N2         -1.2508    3.7516    0.0338 N.ar      1 <0>        -0.4436
     25 Cl1        -0.2396    6.1962    0.0378 Cl        1 <0>         0.0132
     26 Cl2         2.5501    4.8019    0.0030 Cl        1 <0>        -0.0156
     27 N3          2.4026    1.8050   -0.0108 N.pl3     1 <0>        -0.8577
     28 Cl3         0.0021   -0.0041    0.0020 Cl        1 <0>         0.0026
     29 H4        -10.7579    1.5723   -0.5481 H         1 <0>         0.0582
     30 H5         -8.9814    1.4409   -0.7790 H         1 <0>         0.0563
     31 H6         -9.7368    3.0499   -0.5202 H         1 <0>         0.0566
     32 H7        -10.6644    3.6485    1.7213 H         1 <0>         0.0660
     33 H8        -11.6855    2.1709    1.6932 H         1 <0>         0.0683
     34 H9        -11.3238    2.9685    4.0236 H         1 <0>         0.0649
     35 H10       -10.5682    1.3596    3.7648 H         1 <0>         0.0629
     36 H11        -9.1212    4.0643    3.6416 H         1 <0>         0.0650
     37 H12        -9.0326    2.8857    4.9942 H         1 <0>         0.0654
     38 H13        -7.0762    2.6545    3.4718 H         1 <0>         0.0674
     39 H14        -8.0972    1.1769    3.4439 H         1 <0>         0.0646
     40 H15        -7.3441    0.6482    0.6167 H         1 <0>         0.4189
     41 H16        -4.5187    0.7117   -1.9340 H         1 <0>         0.0771
     42 H17        -5.5120    2.2083   -1.9212 H         1 <0>         0.0773
     43 H18        -6.2350    0.6461   -1.4079 H         1 <0>         0.0843
     44 H19         3.3342    2.3898   -0.0166 H         1 <0>         0.4371
     45 H20         2.4432    0.7058   -0.0168 H         1 <0>         0.4368
@<TRIPOS>BOND
     1    1    2 1
     2    1   29 1
     3    1   30 1
     4    1   31 1
     5    2    3 1
     6    2    8 1
     7    2    4 1
     8    4    5 1
     9    4   32 1
    10    4   33 1
    11    5    6 1
    12    5   34 1
    13    5   35 1
    14    6    7 1
    15    6   36 1
    16    6   37 1
    17    7    8 1
    18    7   38 1
    19    7   39 1
    20    8    9 1
    21    8   10 1
    22   10   11 am
    23   10   40 1
    24   11   12 2
    25   11   13 1
    26   13   14 1
    27   13   15 1
    28   13   16 1
    29   15   41 1
    30   15   42 1
    31   15   43 1
    32   16   17 1
    33   17   18 2
    34   17   19 1
    35   19   24 ar
    36   19   20 ar
    37   20   21 ar
    38   20   28 1
    39   21   22 ar
    40   21   27 1
    41   22   23 ar
    42   22   26 1
    43   23   24 ar
    44   23   25 1
    45   27   44 1
    46   27   45 1
@<TRIPOS>MOLECULE
ZINC39272692
   53    56     0     0     0
SMALL
USER_CHARGES

@<TRIPOS>ATOM
      1 C1         -0.0187    1.5258    0.0104 C.3       1 <0>        -0.1509
      2 C2          0.0021   -0.0041    0.0020 C.3       1 <0>        -0.0441
      3 H1         -1.0209   -0.3802    0.0098 H         1 <0>         0.1048
      4 C3          0.7048   -0.4888   -1.2410 C.ar      1 <0>        -0.1468
      5 C4          0.4743    0.1816   -2.4329 C.ar      1 <0>        -0.0569
      6 C5          1.0896   -0.2306   -3.5978 C.ar      1 <0>        -0.0825
      7 C6          1.9456   -1.3242   -3.5799 C.ar      1 <0>         0.1539
      8 C7          2.1804   -1.9938   -2.3914 C.ar      1 <0>        -0.1479
      9 C8          1.5624   -1.5744   -1.2185 C.ar      1 <0>         0.1486
     10 O1          1.8359   -2.2493   -0.0683 O.3       1 <0>        -0.2954
     11 C9          1.0830   -1.9674    1.0136 C.2       1 <0>         0.4939
     12 O2          0.7015   -2.8355    1.7625 O.2       1 <0>        -0.4038
     13 C10         0.7398   -0.5099    1.2454 C.3       1 <0>        -0.1109
     14 H2          0.0964   -0.4174    2.1204 H         1 <0>         0.1306
     15 C11         2.0212    0.2995    1.4540 C.3       1 <0>        -0.1396
     16 C12         2.6765   -0.1209    2.7443 C.2       1 <0>         0.5059
     17 O3          2.1686   -0.9831    3.4296 O.2       1 <0>        -0.5239
     18 N1          3.8270    0.4612    3.1367 N.am      1 <0>        -0.7183
     19 C13         4.4641    0.0525    4.3911 C.3       1 <0>         0.1474
     20 H3          3.6967   -0.1930    5.1252 H         1 <0>         0.0908
     21 C14         5.3419   -1.1754    4.1408 C.3       1 <0>        -0.1656
     22 C15         5.3288    1.1982    4.9209 C.3       1 <0>        -0.0520
     23 C16         4.4481    2.3662    5.2831 C.2       1 <0>        -0.1666
     24 C17         3.7462    2.5674    6.5530 C.ar      1 <0>        -0.1009
     25 C18         3.6553    1.8352    7.7380 C.ar      1 <0>        -0.0703
     26 C19         2.8956    2.3079    8.7710 C.ar      1 <0>        -0.1449
     27 C20         2.2129    3.5103    8.6513 C.ar      1 <0>        -0.0969
     28 C21         2.2886    4.2490    7.4906 C.ar      1 <0>        -0.1322
     29 C22         3.0564    3.7872    6.4268 C.ar      1 <0>         0.0963
     30 N2          3.3278    4.2791    5.1697 N.pl3     1 <0>        -0.5953
     31 C23         4.1628    3.4224    4.5053 C.2       1 <0>         0.0516
     32 O4          2.5504   -1.7356   -4.7255 O.3       1 <0>        -0.4797
     33 Cl1         0.7934    0.6167   -5.0837 Cl        1 <0>        -0.0465
     34 H4          1.0039    1.9031    0.0027 H         1 <0>         0.0685
     35 H5         -0.5459    1.8868   -0.8726 H         1 <0>         0.0709
     36 H6         -0.5289    1.8773    0.9072 H         1 <0>         0.0715
     37 H7         -0.1915    1.0318   -2.4499 H         1 <0>         0.1500
     38 H8          2.8453   -2.8448   -2.3751 H         1 <0>         0.1540
     39 H9          2.7042    0.1189    0.6239 H         1 <0>         0.1004
     40 H10         1.7772    1.3609    1.4994 H         1 <0>         0.1184
     41 H11         4.2333    1.1508    2.5886 H         1 <0>         0.3967
     42 H12         4.7259   -1.9916    3.7634 H         1 <0>         0.0613
     43 H13         6.1093   -0.9299    3.4067 H         1 <0>         0.0573
     44 H14         5.8159   -1.4795    5.0741 H         1 <0>         0.0678
     45 H15         5.8718    0.8646    5.8051 H         1 <0>         0.0878
     46 H16         6.0387    1.5031    4.1520 H         1 <0>         0.0756
     47 H17         4.1832    0.8984    7.8380 H         1 <0>         0.1207
     48 H18         2.8255    1.7411    9.6876 H         1 <0>         0.1227
     49 H19         1.6159    3.8705    9.4761 H         1 <0>         0.1252
     50 H20         1.7534    5.1834    7.4071 H         1 <0>         0.1189
     51 H21         4.5348    3.5725    3.5026 H         1 <0>         0.1655
     52 H22         2.9820    5.1109    4.8101 H         1 <0>         0.4155
     53 H23         3.4071   -1.3183   -4.8898 H         1 <0>         0.3994
@<TRIPOS>BOND
     1    1    2 1
     2    1   34 1
     3    1   35 1
     4    1   36 1
     5    2    3 1
     6    2   13 1
     7    2    4 1
     8    4    9 ar
     9    4    5 ar
    10    5    6 ar
    11    5   37 1
    12    6    7 ar
    13    6   33 1
    14    7    8 ar
    15    7   32 1
    16    8    9 ar
    17    8   38 1
    18    9   10 1
    19   10   11 1
    20   11   12 2
    21   11   13 1
    22   13   14 1
    23   13   15 1
    24   15   16 1
    25   15   39 1
    26   15   40 1
    27   16   17 2
    28   16   18 am
    29   18   19 1
    30   18   41 1
    31   19   20 1
    32   19   21 1
    33   19   22 1
    34   21   42 1
    35   21   43 1
    36   21   44 1
    37   22   45 1
    38   22   46 1
    39   22   23 1
    40   23   24 1
    41   23   31 2
    42   24   25 ar
    43   24   29 ar
    44   25   26 ar
    45   25   47 1
    46   26   27 ar
    47   26   48 1
    48   27   28 ar
    49   27   49 1
    50   28   29 ar
    51   28   50 1
    52   29   30 1
    53   30   52 1
    54   30   31 1
    55   31   51 1
    56   32   53 1
@<TRIPOS>MOLECULE
ZINC02397216
   43    46     0     0     0
SMALL
USER_CHARGES

@<TRIPOS>ATOM
      1 C1         -0.0173    1.4248    0.0099 C.3       1 <0>         0.0272
      2 O1          0.0021   -0.0041    0.0020 O.3       1 <0>        -0.3161
      3 C2         -1.2003   -0.6375    0.0101 C.ar      1 <0>         0.1500
      4 C3         -2.3748    0.1012    0.0195 C.ar      1 <0>        -0.2084
      5 C4         -3.5956   -0.5449    0.0272 C.ar      1 <0>        -0.0694
      6 C5         -3.6478   -1.9268    0.0256 C.ar      1 <0>        -0.1565
      7 C6         -2.4790   -2.6650    0.0167 C.ar      1 <0>        -0.0529
      8 C7         -1.2554   -2.0235    0.0032 C.ar      1 <0>        -0.1222
      9 C8          0.0182   -2.8288   -0.0128 C.3       1 <0>         0.2210
     10 H1          0.8758   -2.1560   -0.0171 H         1 <0>         0.1029
     11 C9          0.0748   -3.7257    1.2300 C.3       1 <0>        -0.1394
     12 C10         1.2169   -4.7380    1.0860 C.3       1 <0>         0.1991
     13 H2          2.1576   -4.2091    0.9328 H         1 <0>         0.0901
     14 N1          0.9379   -5.6001   -0.0788 N.pl3     1 <0>        -0.7051
     15 C11         0.4768   -4.9588   -1.2208 C.2       1 <0>         0.5453
     16 N2          0.0504   -3.6714   -1.2080 N.pl3     1 <0>        -0.4040
     17 N3         -0.3290   -3.3610   -2.5145 N.2       1 <0>        -0.3579
     18 C12        -0.1214   -4.4399   -3.2360 C.2       1 <0>         0.4846
     19 N4          0.3655   -5.4114   -2.4412 N.2       1 <0>        -0.5983
     20 N5         -0.3716   -4.5605   -4.6038 N.pl3     1 <0>        -0.8257
     21 C13         1.3071   -5.5796    2.3328 C.ar      1 <0>        -0.0830
     22 C14         0.4426   -6.6433    2.5126 C.ar      1 <0>        -0.0984
     23 C15         0.5253   -7.4158    3.6557 C.ar      1 <0>        -0.0871
     24 C16         1.4732   -7.1244    4.6201 C.ar      1 <0>        -0.0844
     25 C17         2.3380   -6.0600    4.4398 C.ar      1 <0>        -0.0872
     26 C18         2.2581   -5.2913    3.2939 C.ar      1 <0>        -0.0953
     27 Br1         1.5864   -8.1805    6.1846 Br        1 <0>        -0.0443
     28 H3          1.0053    1.8021    0.0021 H         1 <0>         0.1019
     29 H4         -0.5445    1.7859   -0.8732 H         1 <0>         0.0571
     30 H5         -0.5275    1.7763    0.9067 H         1 <0>         0.0572
     31 H6         -2.3345    1.1804    0.0211 H         1 <0>         0.1308
     32 H7         -4.5101    0.0296    0.0349 H         1 <0>         0.1270
     33 H8         -4.6033   -2.4302    0.0316 H         1 <0>         0.1251
     34 H9         -2.5225   -3.7442    0.0158 H         1 <0>         0.1210
     35 H10         0.2449   -3.1105    2.1136 H         1 <0>         0.1098
     36 H11        -0.8703   -4.2581    1.3362 H         1 <0>         0.0885
     37 H12         1.0696   -6.5606   -0.0484 H         1 <0>         0.4255
     38 H13        -0.7289   -3.8074   -5.0997 H         1 <0>         0.4126
     39 H14        -0.1882   -5.3975   -5.0584 H         1 <0>         0.4126
     40 H15        -0.2977   -6.8705    1.7598 H         1 <0>         0.1347
     41 H16        -0.1504   -8.2465    3.7962 H         1 <0>         0.1365
     42 H17         3.0783   -5.8321    5.1924 H         1 <0>         0.1376
     43 H18         2.9360   -4.4627    3.1511 H         1 <0>         0.1374
@<TRIPOS>BOND
     1    1    2 1
     2    1   28 1
     3    1   29 1
     4    1   30 1
     5    2    3 1
     6    3    8 ar
     7    3    4 ar
     8    4    5 ar
     9    4   31 1
    10    5    6 ar
    11    5   32 1
    12    6    7 ar
    13    6   33 1
    14    7    8 ar
    15    7   34 1
    16    8    9 1
    17    9   10 1
    18    9   16 1
    19    9   11 1
    20   11   12 1
    21   11   35 1
    22   11   36 1
    23   12   13 1
    24   12   14 1
    25   12   21 1
    26   14   15 1
    27   14   37 1
    28   15   19 2
    29   15   16 1
    30   16   17 1
    31   17   18 2
    32   18   19 1
    33   18   20 1
    34   20   38 1
    35   20   39 1
    36   21   26 ar
    37   21   22 ar
    38   22   23 ar
    39   22   40 1
    40   23   24 ar
    41   23   41 1
    42   24   25 ar
    43   24   27 1
    44   25   26 ar
    45   25   42 1
    46   26   43 1
@<TRIPOS>MOLECULE
ZINC61857598
   49    52     0     0     0
SMALL
USER_CHARGES

@<TRIPOS>ATOM
      1 C1         -0.0163    1.3513    0.0095 C.2       1 <0>        -0.1545
      2 C2          1.1833    2.0380    0.0017 C.2       1 <0>        -0.1387
      3 C3          2.3426    1.3358   -0.0131 C.2       1 <0>        -0.1530
      4 S1          1.7535   -0.3495   -0.0166 S.3       1 <0>         0.0400
      5 C4          0.0021   -0.0041    0.0020 C.2       1 <0>        -0.1710
      6 C5          3.7608    1.8454   -0.0244 C.3       1 <0>         0.2964
      7 C6          4.3033    1.7902   -1.4292 C.ar      1 <0>        -0.0962
      8 C7          4.7611    0.5938   -1.9495 C.ar      1 <0>        -0.1122
      9 C8          5.2590    0.5519   -3.2352 C.ar      1 <0>        -0.1131
     10 C9          5.3031    1.7021   -4.0129 C.ar      1 <0>        -0.0667
     11 C10         4.8425    2.8922   -3.4967 C.ar      1 <0>        -0.0679
     12 C11         4.3396    2.9319   -2.2024 C.ar      1 <0>        -0.0968
     13 C12         4.8450    4.1740   -4.2879 C.3       1 <0>        -0.0838
     14 C13         5.7896    4.0659   -5.4831 C.3       1 <0>        -0.1209
     15 C14         5.4496    2.7852   -6.2545 C.3       1 <0>        -0.1216
     16 C15         5.8664    1.5862   -5.4051 C.3       1 <0>        -0.0838
     17 N1          4.5867    1.0103    0.8513 N.am      1 <0>        -0.7366
     18 C16         4.6413    1.2681    2.1730 C.2       1 <0>         0.7186
     19 O1          4.0051    2.1937    2.6387 O.2       1 <0>        -0.5572
     20 N2          5.4012    0.4998    2.9786 N.am      1 <0>        -0.5254
     21 N3          6.1343   -0.5667    2.4419 N.am      1 <0>        -0.5292
     22 C17         6.8941   -1.3349    3.2475 C.2       1 <0>         0.5939
     23 O2          6.9434   -1.1023    4.4402 O.2       1 <0>        -0.5204
     24 C18         7.6653   -2.4568    2.6830 C.2       1 <0>        -0.2308
     25 C19         8.5343   -3.3931    3.4108 C.2       1 <0>        -0.1605
     26 C20         9.0211   -4.2373    2.4885 C.2       1 <0>        -0.0306
     27 O3          8.5326   -3.9022    1.2842 O.3       1 <0>        -0.1678
     28 C21         7.7173   -2.8472    1.3769 C.2       1 <0>         0.0256
     29 H1         -0.9542    1.8866    0.0258 H         1 <0>         0.1354
     30 H2          1.1967    3.1179    0.0070 H         1 <0>         0.1341
     31 H3         -0.8275   -0.6955    0.0065 H         1 <0>         0.1858
     32 H4          3.7796    2.8753    0.3322 H         1 <0>         0.1213
     33 H5          4.7293   -0.3048   -1.3512 H         1 <0>         0.1159
     34 H6          5.6179   -0.3826   -3.6403 H         1 <0>         0.1252
     35 H7          3.9785    3.8653   -1.7965 H         1 <0>         0.1260
     36 H8          3.8355    4.3780   -4.6449 H         1 <0>         0.0783
     37 H9          5.1705    4.9923   -3.6455 H         1 <0>         0.0766
     38 H10         5.6598    4.9312   -6.1331 H         1 <0>         0.0695
     39 H11         6.8209    4.0206   -5.1330 H         1 <0>         0.0662
     40 H12         4.3771    2.7451   -6.4448 H         1 <0>         0.0662
     41 H13         5.9916    2.7714   -7.2001 H         1 <0>         0.0693
     42 H14         6.9543    1.5452   -5.3504 H         1 <0>         0.0779
     43 H15         5.4956    0.6716   -5.8679 H         1 <0>         0.0760
     44 H16         5.0943    0.2719    0.4797 H         1 <0>         0.3913
     45 H17         5.4405    0.6853    3.9298 H         1 <0>         0.4468
     46 H18         6.0950   -0.7522    1.4907 H         1 <0>         0.4150
     47 H19         8.7394   -3.3997    4.4711 H         1 <0>         0.1640
     48 H20         9.6980   -5.0559    2.6840 H         1 <0>         0.2140
     49 H21         7.1913   -2.3811    0.5568 H         1 <0>         0.2093
@<TRIPOS>BOND
     1    1    5 2
     2    1    2 1
     3    1   29 1
     4    2    3 2
     5    2   30 1
     6    3    4 1
     7    3    6 1
     8    4    5 1
     9    5   31 1
    10    6    7 1
    11    6   17 1
    12    6   32 1
    13    7   12 ar
    14    7    8 ar
    15    8    9 ar
    16    8   33 1
    17    9   10 ar
    18    9   34 1
    19   10   16 1
    20   10   11 ar
    21   11   12 ar
    22   11   13 1
    23   12   35 1
    24   13   14 1
    25   13   36 1
    26   13   37 1
    27   14   15 1
    28   14   38 1
    29   14   39 1
    30   15   16 1
    31   15   40 1
    32   15   41 1
    33   16   42 1
    34   16   43 1
    35   17   18 am
    36   17   44 1
    37   18   19 2
    38   18   20 am
    39   20   21 1
    40   20   45 1
    41   21   22 am
    42   21   46 1
    43   22   23 2
    44   22   24 1
    45   24   28 2
    46   24   25 1
    47   25   26 2
    48   25   47 1
    49   26   27 1
    50   26   48 1
    51   27   28 1
    52   28   49 1
@<TRIPOS>MOLECULE
ZINC13186601
   41    43     0     0     0
SMALL
USER_CHARGES
8-[(5-bromo-2-methyl-phenyl)sulfonylamino]-3,4-dihydro-2H-1,5-benzodioxepine-7-carboxylic acid
@<TRIPOS>ATOM
      1 C1          1.5517    3.2330    2.2512 C.3       1 <0>        -0.1614
      2 C2          0.5823    2.8926    1.1488 C.ar      1 <0>         0.0533
      3 C3         -0.7063    3.3927    1.1828 C.ar      1 <0>        -0.1384
      4 C4         -1.5942    3.0847    0.1696 C.ar      1 <0>        -0.0315
      5 C5         -1.1967    2.2673   -0.8735 C.ar      1 <0>        -0.1236
      6 C6          0.0908    1.7630   -0.9043 C.ar      1 <0>         0.0170
      7 C7          0.9798    2.0759    0.1070 C.ar      1 <0>        -0.6764
      8 S1          2.6203    1.4341    0.0675 S.o2      1 <0>         2.6908
      9 O1          2.7115    0.6240   -1.0965 O.2       1 <0>        -0.9573
     10 O2          3.4917    2.5318    0.3019 O.2       1 <0>        -0.9472
     11 N1          2.7797    0.4177    1.3651 N.pl3     1 <0>        -1.0250
     12 C8          1.9546   -0.6953    1.4820 C.ar      1 <0>         0.1946
     13 C9          1.5657   -1.3949    0.3482 C.ar      1 <0>        -0.1909
     14 C10         0.7482   -2.5056    0.4700 C.ar      1 <0>         0.0951
     15 C11         0.3027   -2.9198    1.7230 C.ar      1 <0>         0.0302
     16 C12         0.6759   -2.2330    2.8573 C.ar      1 <0>        -0.0486
     17 C13         1.5080   -1.1108    2.7473 C.ar      1 <0>        -0.1268
     18 C14         1.9117   -0.3707    3.9519 C.2       1 <0>         0.4995
     19 O3          2.6333    0.6027    3.8539 O.co2     1 <0>        -0.6236
     20 O4         -0.5093   -4.0141    1.8215 O.3       1 <0>        -0.3163
     21 C15         0.0931   -5.2701    1.5035 C.3       1 <0>         0.0569
     22 C16         0.0604   -5.5198    0.0039 C.3       1 <0>        -0.1848
     23 C17         0.9036   -4.5174   -0.7683 C.3       1 <0>         0.0595
     24 O5          0.3684   -3.1990   -0.6408 O.3       1 <0>        -0.3163
     25 Br1        -2.4135    1.8391   -2.2562 Br        1 <0>        -0.0462
     26 H1          2.1607    4.0851    1.9493 H         1 <0>         0.0968
     27 H2          0.9989    3.4841    3.1565 H         1 <0>         0.0862
     28 H3          2.1967    2.3761    2.4453 H         1 <0>         0.1004
     29 H4         -1.0179    4.0271    1.9994 H         1 <0>         0.1425
     30 H5         -2.5994    3.4787    0.1940 H         1 <0>         0.1393
     31 H6          0.4014    1.1246   -1.7182 H         1 <0>         0.1520
     32 H7          3.4488    0.5988    2.0437 H         1 <0>         0.4433
     33 H8          1.9034   -1.0760   -0.6268 H         1 <0>         0.1683
     34 H9          0.3284   -2.5576    3.8269 H         1 <0>         0.1485
     35 H10         1.1285   -5.2680    1.8443 H         1 <0>         0.0566
     36 H11        -0.4500   -6.0672    2.0112 H         1 <0>         0.0992
     37 H12         0.4350   -6.5239   -0.1952 H         1 <0>         0.0856
     38 H13        -0.9711   -5.4547   -0.3425 H         1 <0>         0.0810
     39 H14         1.9218   -4.5303   -0.3795 H         1 <0>         0.0578
     40 H15         0.9191   -4.7978   -1.8215 H         1 <0>         0.1007
     41 O6          1.4817   -0.7716    5.1650 O.co2     1 <0>        -0.7408
@<TRIPOS>BOND
     1    1    2 1
     2    1   26 1
     3    1   27 1
     4    1   28 1
     5    2    7 ar
     6    2    3 ar
     7    3    4 ar
     8    3   29 1
     9    4    5 ar
    10    4   30 1
    11    5    6 ar
    12    5   25 1
    13    6    7 ar
    14    6   31 1
    15    7    8 1
    16    8    9 2
    17    8   10 2
    18    8   11 1
    19   11   12 1
    20   11   32 1
    21   12   17 ar
    22   12   13 ar
    23   13   14 ar
    24   13   33 1
    25   14   24 1
    26   14   15 ar
    27   15   16 ar
    28   15   20 1
    29   16   17 ar
    30   16   34 1
    31   17   18 1
    32   18   19 2
    33   18   41 1
    34   20   21 1
    35   21   22 1
    36   21   35 1
    37   21   36 1
    38   22   23 1
    39   22   37 1
    40   22   38 1
    41   23   24 1
    42   23   39 1
    43   23   40 1
@<TRIPOS>MOLECULE
ZINC14151975
   48    51     0     0     0
SMALL
USER_CHARGES
4-[5-[(E)-2-cyano-3-[(3-cyano-4,5,6,7-tetrahydrobenzothiophen-2-yl)amino]-3-oxo-prop-1-enyl]-2-furyl]benzoic acid
@<TRIPOS>ATOM
      1 C1          1.2226   -0.6870   -0.0191 C.ar      1 <0>        -0.0933
      2 C2          1.2408   -2.0578   -0.0218 C.ar      1 <0>        -0.0828
      3 C3          0.0396   -2.7731   -0.0142 C.ar      1 <0>        -0.0810
      4 C4         -1.1805   -2.0908    0.0016 C.ar      1 <0>        -0.0908
      5 C5         -1.1995   -0.7200    0.0096 C.ar      1 <0>        -0.0970
      6 C6          0.0021   -0.0041    0.0020 C.ar      1 <0>        -0.0701
      7 C7         -0.0179    1.4704    0.0101 C.2       1 <0>         0.1308
      8 C8          1.0910    2.2903    0.0039 C.2       1 <0>        -0.2270
      9 C9          0.6264    3.6052    0.0149 C.2       1 <0>        -0.0891
     10 C10        -0.7591    3.5405    0.0275 C.2       1 <0>        -0.0868
     11 O1         -1.1202    2.2400    0.0189 O.3       1 <0>        -0.1517
     12 C11        -1.6358    4.6397    0.0408 C.2       1 <0>         0.1315
     13 C12        -3.0070    4.4329    0.0526 C.2       1 <0>        -0.1644
     14 C13        -3.5300    3.0998    0.0512 C.1       1 <0>         0.2308
     15 N1         -3.9449    2.0423    0.0501 N.1       1 <0>        -0.3838
     16 C14        -3.9224    5.5805    0.0665 C.2       1 <0>         0.5819
     17 O2         -3.4778    6.7135    0.0677 O.2       1 <0>        -0.4949
     18 N2         -5.2550    5.3795    0.0779 N.am      1 <0>        -0.6177
     19 C15        -6.1195    6.4634    0.0911 C.2       1 <0>         0.0970
     20 C16        -7.5069    6.4594    0.0983 C.2       1 <0>        -0.1322
     21 C17        -8.1823    7.7452    0.1153 C.2       1 <0>        -0.0577
     22 C18        -7.3673    8.8232    0.1123 C.2       1 <0>        -0.2120
     23 S1         -5.7294    8.1516    0.0948 S.3       1 <0>         0.2605
     24 C19        -7.7756   10.2640    0.1214 C.3       1 <0>        -0.0344
     25 C20        -9.2650   10.3469   -0.2430 C.3       1 <0>        -0.1154
     26 C21       -10.0361    9.3242    0.5965 C.3       1 <0>        -0.1190
     27 C22        -9.6973    7.9071    0.1305 C.3       1 <0>        -0.0625
     28 C23        -8.2457    5.2327    0.0926 C.1       1 <0>         0.2640
     29 N3         -8.8318    4.2596    0.0882 N.1       1 <0>        -0.4208
     30 C24         0.0596   -4.2490   -0.0233 C.2       1 <0>         0.4846
     31 O3         -0.9841   -4.8707   -0.0171 O.co2     1 <0>        -0.6233
     32 H1          2.1505   -0.1345   -0.0292 H         1 <0>         0.1272
     33 H2          2.1832   -2.5852   -0.0344 H         1 <0>         0.1421
     34 H3         -2.1083   -2.6436    0.0072 H         1 <0>         0.1353
     35 H4         -2.1421   -0.1930    0.0215 H         1 <0>         0.1253
     36 H5          2.1236    1.9741   -0.0073 H         1 <0>         0.1647
     37 H6          1.2293    4.5012    0.0142 H         1 <0>         0.1684
     38 H7         -1.2414    5.6451    0.0419 H         1 <0>         0.1872
     39 H8         -5.6093    4.4765    0.0770 H         1 <0>         0.4222
     40 H9         -7.6165   10.6845    1.1144 H         1 <0>         0.0840
     41 H10        -7.1866   10.8172   -0.6102 H         1 <0>         0.0828
     42 H11        -9.6378   11.3490   -0.0311 H         1 <0>         0.0735
     43 H12        -9.3949   10.1253   -1.3023 H         1 <0>         0.0691
     44 H13        -9.7613    9.4359    1.6454 H         1 <0>         0.0683
     45 H14       -11.1065    9.4954    0.4824 H         1 <0>         0.0698
     46 H15       -10.1354    7.1823    0.8166 H         1 <0>         0.0742
     47 H16       -10.0941    7.7475   -0.8721 H         1 <0>         0.0798
     48 O4          1.2355   -4.9067   -0.0385 O.co2     1 <0>        -0.7471
@<TRIPOS>BOND
     1    1    6 ar
     2    1    2 ar
     3    1   32 1
     4    2    3 ar
     5    2   33 1
     6    3    4 ar
     7    3   30 1
     8    4    5 ar
     9    4   34 1
    10    5    6 ar
    11    5   35 1
    12    6    7 1
    13    7   11 1
    14    7    8 2
    15    8    9 1
    16    8   36 1
    17    9   10 2
    18    9   37 1
    19   10   11 1
    20   10   12 1
    21   12   13 2
    22   12   38 1
    23   13   14 1
    24   13   16 1
    25   14   15 3
    26   16   17 2
    27   16   18 am
    28   18   19 1
    29   18   39 1
    30   19   23 1
    31   19   20 2
    32   20   21 1
    33   20   28 1
    34   21   27 1
    35   21   22 2
    36   22   23 1
    37   22   24 1
    38   24   25 1
    39   24   40 1
    40   24   41 1
    41   25   26 1
    42   25   42 1
    43   25   43 1
    44   26   27 1
    45   26   44 1
    46   26   45 1
    47   27   46 1
    48   27   47 1
    49   28   29 3
    50   30   31 2
    51   30   48 1
@<TRIPOS>MOLECULE
ZINC03846559
   62    66     0     0     0
SMALL
USER_CHARGES
2-hydroxy-3-[(3S)-3-(2-hydroxyphenyl)-3-(N-phenylanilino)propanoyl]-1-methyl-quinolin-4-one
@<TRIPOS>ATOM
      1 C1          3.4586    5.1125   -7.2886 C.3       1 <0>         0.0730
      2 N1          2.5129    5.4263   -6.2147 N.pl3     1 <0>        -0.5251
      3 C2          1.2639    5.9074   -6.5531 C.ar      1 <0>         0.2194
      4 C3          0.9187    6.0881   -7.8898 C.ar      1 <0>        -0.1982
      5 C4         -0.3293    6.5694   -8.2202 C.ar      1 <0>        -0.0686
      6 C5         -1.2535    6.8779   -7.2326 C.ar      1 <0>        -0.1841
      7 C6         -0.9328    6.7067   -5.9039 C.ar      1 <0>        -0.0330
      8 C7          0.3273    6.2206   -5.5553 C.ar      1 <0>        -0.1947
      9 C8          0.6993    6.0204   -4.1412 C.2       1 <0>         0.4307
     10 O1         -0.0801    6.2723   -3.2390 O.2       1 <0>        -0.5358
     11 C9          2.0498    5.5098   -3.8646 C.2       1 <0>        -0.5108
     12 C10         2.8976    5.2333   -4.9411 C.2       1 <0>         0.5187
     13 O2          4.1343    4.7609   -4.6956 O.3       1 <0>        -0.6262
     14 C11         2.4811    5.2966   -2.5345 C.2       1 <0>         0.4241
     15 O3          3.5972    4.8696   -2.3193 O.2       1 <0>        -0.4891
     16 C12         1.5554    5.5995   -1.3846 C.3       1 <0>        -0.1451
     17 C13         2.2616    5.2836   -0.0646 C.3       1 <0>         0.2174
     18 H1          3.2501    5.7642   -0.0206 H         1 <0>         0.0887
     19 C14         1.4117    5.7579    1.0859 C.ar      1 <0>        -0.1253
     20 C15         0.5854    4.8698    1.7474 C.ar      1 <0>        -0.0634
     21 C16        -0.1906    5.3032    2.8062 C.ar      1 <0>        -0.1639
     22 C17        -0.1507    6.6286    3.1988 C.ar      1 <0>        -0.0863
     23 C18         0.6697    7.5215    2.5374 C.ar      1 <0>        -0.2170
     24 C19         1.4539    7.0878    1.4780 C.ar      1 <0>         0.1635
     25 O4          2.2622    7.9643    0.8260 O.3       1 <0>        -0.4998
     26 N2          2.4683    3.8374    0.0448 N.pl3     1 <0>        -0.5614
     27 C20         1.9130    2.9784   -0.9069 C.ar      1 <0>         0.1625
     28 C21         0.5370    2.7941   -0.9599 C.ar      1 <0>        -0.1297
     29 C22        -0.0085    1.9447   -1.9022 C.ar      1 <0>        -0.1167
     30 C23         0.8136    1.2738   -2.7891 C.ar      1 <0>        -0.1255
     31 C24         2.1833    1.4590   -2.7426 C.ar      1 <0>        -0.1111
     32 C25         2.7356    2.3069   -1.8029 C.ar      1 <0>        -0.0828
     33 C26         3.2207    3.3171    1.1008 C.ar      1 <0>         0.2306
     34 C27         3.7881    4.1710    2.0383 C.ar      1 <0>        -0.1830
     35 C28         4.5272    3.6531    3.0836 C.ar      1 <0>        -0.0780
     36 C29         4.7112    2.2868    3.1921 C.ar      1 <0>        -0.1866
     37 C30         4.1522    1.4342    2.2577 C.ar      1 <0>        -0.0783
     38 C31         3.4080    1.9451    1.2126 C.ar      1 <0>        -0.1906
     39 H2          2.9919    5.3248   -8.2618 H         1 <0>         0.0769
     40 H3          3.7317    4.0482   -7.2373 H         1 <0>         0.0669
     41 H4          4.3623    5.7289   -7.1731 H         1 <0>         0.0670
     42 H5          1.6295    5.8515   -8.6677 H         1 <0>         0.1288
     43 H6         -0.5908    6.7081   -9.2589 H         1 <0>         0.1199
     44 H7         -2.2281    7.2541   -7.5065 H         1 <0>         0.1188
     45 H8         -1.6531    6.9480   -5.1362 H         1 <0>         0.1298
     46 H9          1.2790    6.6640   -1.4070 H         1 <0>         0.0956
     47 H10         0.6484    4.9833   -1.4719 H         1 <0>         0.0973
     48 H11         0.5491    3.8351    1.4398 H         1 <0>         0.1274
     49 H12        -0.8327    4.6066    3.3246 H         1 <0>         0.1174
     50 H13        -0.7612    6.9657    4.0234 H         1 <0>         0.1176
     51 H14         0.7006    8.5565    2.8444 H         1 <0>         0.1221
     52 H15         2.2949    9.0187    1.1377 H         1 <0>         0.4264
     53 H16        -0.1052    3.3143   -0.2647 H         1 <0>         0.1187
     54 H17        -1.0780    1.8007   -1.9437 H         1 <0>         0.1173
     55 H18         0.3847    0.6067   -3.5221 H         1 <0>         0.1146
     56 H19         2.8221    0.9367   -3.4394 H         1 <0>         0.1166
     57 H20         3.8057    2.4476   -1.7642 H         1 <0>         0.1267
     58 H21         3.6482    5.2385    1.9519 H         1 <0>         0.1185
     59 H22         4.9657    4.3161    3.8147 H         1 <0>         0.1132
     60 H23         5.2931    1.8846    4.0082 H         1 <0>         0.1105
     61 H24         4.2982    0.3677    2.3451 H         1 <0>         0.1141
     62 H25         2.9723    1.2787    0.4828 H         1 <0>         0.1192
@<TRIPOS>BOND
     1    1    2 1
     2    1   39 1
     3    1   40 1
     4    1   41 1
     5    2   12 1
     6    2    3 1
     7    3    8 ar
     8    3    4 ar
     9    4    5 ar
    10    4   42 1
    11    5    6 ar
    12    5   43 1
    13    6    7 ar
    14    6   44 1
    15    7    8 ar
    16    7   45 1
    17    8    9 1
    18    9   10 2
    19    9   11 1
    20   11   12 2
    21   11   14 1
    22   12   13 1
    23   14   15 2
    24   14   16 1
    25   16   17 1
    26   16   46 1
    27   16   47 1
    28   17   18 1
    29   17   19 1
    30   17   26 1
    31   19   24 ar
    32   19   20 ar
    33   20   21 ar
    34   20   48 1
    35   21   22 ar
    36   21   49 1
    37   22   23 ar
    38   22   50 1
    39   23   24 ar
    40   23   51 1
    41   24   25 1
    42   25   52 1
    43   26   27 1
    44   26   33 1
    45   27   32 ar
    46   27   28 ar
    47   28   29 ar
    48   28   53 1
    49   29   30 ar
    50   29   54 1
    51   30   31 ar
    52   30   55 1
    53   31   32 ar
    54   31   56 1
    55   32   57 1
    56   33   38 ar
    57   33   34 ar
    58   34   35 ar
    59   34   58 1
    60   35   36 ar
    61   35   59 1
    62   36   37 ar
    63   36   60 1
    64   37   38 ar
    65   37   61 1
    66   38   62 1
@<TRIPOS>MOLECULE
ZINC40126515
   47    50     0     0     0
SMALL
USER_CHARGES

@<TRIPOS>ATOM
      1 C1          2.6876   -1.7492    3.6735 C.ar      1 <0>        -0.1166
      2 C2          2.6057   -0.8128    2.6596 C.ar      1 <0>        -0.0999
      3 C3          3.7576   -0.3438    2.0567 C.ar      1 <0>        -0.0690
      4 C4          4.9923   -0.8109    2.4672 C.ar      1 <0>        -0.0622
      5 C5          5.0747   -1.7473    3.4817 C.ar      1 <0>        -0.0883
      6 C6          3.9214   -2.2164    4.0849 C.ar      1 <0>        -0.1011
      7 Br1         6.7633   -2.3871    4.0432 Br        1 <0>        -0.0623
      8 C7          3.6677    0.6766    0.9513 C.3       1 <0>         0.2617
      9 H1          2.6518    0.7137    0.5579 H         1 <0>         0.0769
     10 C8          4.0754    2.0373    1.4660 C.2       1 <0>        -0.5050
     11 C9          5.1522    2.4223    0.7416 C.2       1 <0>         0.2658
     12 C10         5.4795    1.3667   -0.2401 C.2       1 <0>         0.5117
     13 O1          6.3955    1.4151   -1.0368 O.2       1 <0>        -0.5356
     14 N1          4.6123    0.3432   -0.1212 N.am      1 <0>        -0.7253
     15 O2          5.8222    3.5878    0.8921 O.3       1 <0>        -0.6479
     16 C11         3.4293    2.7947    2.5419 C.2       1 <0>         0.5012
     17 O3          4.0408    3.0411    3.5644 O.2       1 <0>        -0.4667
     18 C12         2.0344    3.2592    2.3845 C.ar      1 <0>        -0.0963
     19 C13         1.3662    3.0734    1.1719 C.ar      1 <0>        -0.1006
     20 C14         0.0648    3.5076    1.0289 C.ar      1 <0>        -0.0979
     21 C15        -0.5820    4.1272    2.0830 C.ar      1 <0>        -0.1951
     22 C16         0.0741    4.3168    3.2919 C.ar      1 <0>         0.1098
     23 C17         1.3785    3.8798    3.4486 C.ar      1 <0>        -0.1035
     24 O4         -0.5665    4.9267    4.3239 O.3       1 <0>        -0.3090
     25 C18        -1.9129    5.3466    4.0943 C.3       1 <0>         0.1006
     26 C19        -2.4557    5.9971    5.3407 C.ar      1 <0>        -0.0880
     27 C20        -3.0963    5.2312    6.2968 C.ar      1 <0>        -0.0817
     28 C21        -3.5943    5.8271    7.4401 C.ar      1 <0>        -0.1142
     29 C22        -3.4515    7.1905    7.6276 C.ar      1 <0>        -0.0269
     30 C23        -2.8103    7.9564    6.6703 C.ar      1 <0>        -0.1137
     31 C24        -2.3078    7.3584    5.5301 C.ar      1 <0>        -0.0813
     32 Cl1        -4.0773    7.9398    9.0631 Cl        1 <0>        -0.0703
     33 H2          1.7875   -2.1123    4.1471 H         1 <0>         0.1274
     34 H3          1.6413   -0.4479    2.3384 H         1 <0>         0.1273
     35 H4          5.8923   -0.4449    1.9956 H         1 <0>         0.1289
     36 H5          3.9853   -2.9476    4.8771 H         1 <0>         0.1266
     37 H6          4.6118   -0.4701   -0.6499 H         1 <0>         0.4073
     38 H7          1.8684    2.5903    0.3468 H         1 <0>         0.1369
     39 H8         -0.4506    3.3636    0.0909 H         1 <0>         0.1259
     40 H9         -1.6009    4.4651    1.9650 H         1 <0>         0.1243
     41 H10         1.8882    4.0225    4.3900 H         1 <0>         0.1368
     42 H11        -1.9353    6.0618    3.2721 H         1 <0>         0.0728
     43 H12        -2.5251    4.4814    3.8400 H         1 <0>         0.0726
     44 H13        -3.2079    4.1670    6.1502 H         1 <0>         0.1355
     45 H14        -4.0950    5.2288    8.1869 H         1 <0>         0.1361
     46 H15        -2.6989    9.0207    6.8160 H         1 <0>         0.1363
     47 H16        -1.8030    7.9555    4.7850 H         1 <0>         0.1360
@<TRIPOS>BOND
     1    1    6 ar
     2    1    2 ar
     3    1   33 1
     4    2    3 ar
     5    2   34 1
     6    3    4 ar
     7    3    8 1
     8    4    5 ar
     9    4   35 1
    10    5    6 ar
    11    5    7 1
    12    6   36 1
    13    8    9 1
    14    8   14 1
    15    8   10 1
    16   10   11 2
    17   10   16 1
    18   11   12 1
    19   11   15 1
    20   12   13 2
    21   12   14 am
    22   14   37 1
    23   16   17 2
    24   16   18 1
    25   18   23 ar
    26   18   19 ar
    27   19   20 ar
    28   19   38 1
    29   20   21 ar
    30   20   39 1
    31   21   22 ar
    32   21   40 1
    33   22   23 ar
    34   22   24 1
    35   23   41 1
    36   24   25 1
    37   25   26 1
    38   25   42 1
    39   25   43 1
    40   26   31 ar
    41   26   27 ar
    42   27   28 ar
    43   27   44 1
    44   28   29 ar
    45   28   45 1
    46   29   30 ar
    47   29   32 1
    48   30   31 ar
    49   30   46 1
    50   31   47 1
@<TRIPOS>MOLECULE
ZINC15906413
   49    52     0     0     0
SMALL
USER_CHARGES

@<TRIPOS>ATOM
      1 C1          0.7888    2.3675    0.3247 C.ar      1 <0>        -0.1171
      2 C2          2.0548    2.9215    0.3913 C.ar      1 <0>        -0.1147
      3 C3          3.1694    2.1094    0.3523 C.ar      1 <0>        -0.0950
      4 C4          3.0177    0.7263    0.2453 C.ar      1 <0>        -0.0284
      5 C5          1.7380    0.1738    0.1785 C.ar      1 <0>        -0.1139
      6 C6          0.6316    0.9970    0.2185 C.ar      1 <0>        -0.1129
      7 C7          4.2083   -0.1504    0.2024 C.2       1 <0>         0.1201
      8 C8          5.4609    0.3528    0.2703 C.2       1 <0>        -0.2822
      9 S1          6.4590   -1.1213    0.1757 S.3       1 <0>         0.2360
     10 C9          5.2291   -2.2610    0.0579 C.2       1 <0>         0.3405
     11 N1          4.0941   -1.5093    0.0980 N.pl3     1 <0>        -0.6145
     12 N2          5.3382   -3.5824   -0.0443 N.2       1 <0>        -0.5196
     13 C10         6.5469   -4.1540   -0.0621 C.2       1 <0>         0.4998
     14 S2          6.6915   -5.9048   -0.1976 S.3       1 <0>        -0.5914
     15 N3          7.6402   -3.4009    0.0224 N.2       1 <0>        -0.6254
     16 C11         8.8557   -3.9758    0.0045 C.2       1 <0>         0.5010
     17 N4          8.9634   -5.2800   -0.0964 N.2       1 <0>        -0.8260
     18 S3         10.4593   -5.9807   -0.2134 S.o2      1 <0>         2.5119
     19 O1         11.0081   -5.5615   -1.4553 O.2       1 <0>        -1.0170
     20 O2         11.1144   -5.7488    1.0260 O.2       1 <0>        -1.0163
     21 C12        10.2114   -7.7210   -0.3341 C.ar      1 <0>        -0.5955
     22 C13        10.1596   -8.4929    0.8115 C.ar      1 <0>        -0.0233
     23 C14         9.9651   -9.8582    0.7168 C.ar      1 <0>        -0.1456
     24 C15         9.8220  -10.4516   -0.5235 C.ar      1 <0>        -0.0840
     25 C16         9.8729   -9.6796   -1.6691 C.ar      1 <0>        -0.1457
     26 C17        10.0631   -8.3136   -1.5742 C.ar      1 <0>        -0.0214
     27 C18        10.0750   -3.1358    0.0988 C.ar      1 <0>        -0.1170
     28 C19        10.9437   -3.0397   -0.9866 C.ar      1 <0>        -0.0826
     29 C20        12.0765   -2.2569   -0.8933 C.ar      1 <0>        -0.1275
     30 C21        12.3504   -1.5685    0.2749 C.ar      1 <0>        -0.1095
     31 C22        11.4916   -1.6603    1.3554 C.ar      1 <0>        -0.1331
     32 C23        10.3529   -2.4356    1.2712 C.ar      1 <0>        -0.0575
     33 H1         -0.0806    3.0073    0.3601 H         1 <0>         0.1239
     34 H2          2.1708    3.9921    0.4738 H         1 <0>         0.1278
     35 H3          4.1571    2.5431    0.4041 H         1 <0>         0.1321
     36 H4          1.6139   -0.8958    0.0952 H         1 <0>         0.1209
     37 H5         -0.3594    0.5707    0.1669 H         1 <0>         0.1260
     38 H6          5.7758    1.3821    0.3583 H         1 <0>         0.1924
     39 H7         10.2715   -8.0293    1.7805 H         1 <0>         0.1322
     40 H8          9.9254  -10.4613    1.6118 H         1 <0>         0.1240
     41 H9          9.6708  -11.5184   -0.5975 H         1 <0>         0.1216
     42 H10         9.7614  -10.1432   -2.6381 H         1 <0>         0.1240
     43 H11        10.0991   -7.7100   -2.4690 H         1 <0>         0.1329
     44 H12        10.7311   -3.5770   -1.8990 H         1 <0>         0.1491
     45 H13        12.7507   -2.1820   -1.7337 H         1 <0>         0.1230
     46 H14        13.2382   -0.9574    0.3436 H         1 <0>         0.1191
     47 H15        11.7105   -1.1210    2.2651 H         1 <0>         0.1224
     48 H16         9.6806   -2.5027    2.1138 H         1 <0>         0.1244
     49 H17         3.2212   -1.9295    0.0495 H         1 <0>         0.4115
@<TRIPOS>BOND
     1    1    6 ar
     2    1    2 ar
     3    1   33 1
     4    2    3 ar
     5    2   34 1
     6    3    4 ar
     7    3   35 1
     8    4    5 ar
     9    4    7 1
    10    5    6 ar
    11    5   36 1
    12    6   37 1
    13    7   11 1
    14    7    8 2
    15    8    9 1
    16    8   38 1
    17    9   10 1
    18   10   11 1
    19   10   12 2
    20   11   49 1
    21   12   13 1
    22   13   14 1
    23   13   15 2
    24   15   16 1
    25   16   17 2
    26   16   27 1
    27   17   18 1
    28   18   19 2
    29   18   20 2
    30   18   21 1
    31   21   26 ar
    32   21   22 ar
    33   22   23 ar
    34   22   39 1
    35   23   24 ar
    36   23   40 1
    37   24   25 ar
    38   24   41 1
    39   25   26 ar
    40   25   42 1
    41   26   43 1
    42   27   32 ar
    43   27   28 ar
    44   28   29 ar
    45   28   44 1
    46   29   30 ar
    47   29   45 1
    48   30   31 ar
    49   30   46 1
    50   31   32 ar
    51   31   47 1
    52   32   48 1
@<TRIPOS>MOLECULE
ZINC09339147
   55    58     0     0     0
SMALL
USER_CHARGES
2-[(2-pyrrolidin-1-ylphenyl)carbamoylmethyl]-3,4-dihydro-1H-isoquinoline-3-carboxamide
@<TRIPOS>ATOM
      1 C1         -2.9048    4.9881    3.2426 C.ar      1 <0>        -0.0914
      2 C2         -1.9096    5.7768    2.6957 C.ar      1 <0>        -0.1009
      3 C3         -0.8123    5.1860    2.1028 C.ar      1 <0>        -0.0892
      4 C4         -0.7014    3.8040    2.0522 C.ar      1 <0>        -0.1272
      5 C5         -1.6954    3.0182    2.5946 C.ar      1 <0>        -0.0924
      6 C6         -2.7969    3.6129    3.1914 C.ar      1 <0>        -0.1008
      7 C7         -1.6227    1.5133    2.5581 C.3       1 <0>        -0.0925
      8 C8         -0.1919    1.0669    2.2561 C.3       1 <0>         0.0143
      9 H1          0.4496    1.2926    3.1080 H         1 <0>         0.1648
     10 C9          0.5191    3.2060    1.4030 C.3       1 <0>         0.0448
     11 C10         1.4992    1.1767    0.5236 C.3       1 <0>        -0.0422
     12 C11         1.7823    1.7462   -0.8426 C.2       1 <0>         0.5043
     13 O1          1.0452    2.5862   -1.3141 O.2       1 <0>        -0.5117
     14 N1          2.8544    1.3220   -1.5406 N.am      1 <0>        -0.6310
     15 C12         3.1720    1.9186   -2.7684 C.ar      1 <0>         0.1105
     16 C13         2.1780    2.5149   -3.5295 C.ar      1 <0>        -0.1057
     17 C14         2.4944    3.1073   -4.7377 C.ar      1 <0>        -0.1205
     18 C15         3.7990    3.0985   -5.1963 C.ar      1 <0>        -0.0949
     19 C16         4.7952    2.5015   -4.4470 C.ar      1 <0>        -0.1482
     20 C17         4.4877    1.9092   -3.2309 C.ar      1 <0>         0.0831
     21 N2          5.4942    1.3039   -2.4709 N.pl3     1 <0>        -0.4772
     22 C18         6.8040    1.3770   -3.1675 C.3       1 <0>         0.0290
     23 C19         7.8267    1.1693   -2.0223 C.3       1 <0>        -0.1257
     24 C20         7.1813    1.9287   -0.8405 C.3       1 <0>        -0.1334
     25 C21         5.6822    2.0077   -1.1837 C.3       1 <0>         0.0403
     26 C22        -0.1713   -0.4145    1.9803 C.2       1 <0>         0.5090
     27 O2         -0.4059   -0.8269    0.8641 O.2       1 <0>        -0.5155
     28 N3          0.1079   -1.2811    2.9740 N.am      1 <0>        -0.8206
     29 H2         -3.7642    5.4468    3.7090 H         1 <0>         0.1384
     30 H3         -1.9910    6.8532    2.7319 H         1 <0>         0.1388
     31 H4         -0.0353    5.8029    1.6761 H         1 <0>         0.1359
     32 H5         -3.5746    2.9969    3.6181 H         1 <0>         0.1364
     33 H6         -2.2902    1.1374    1.7827 H         1 <0>         0.1135
     34 H7         -1.9298    1.1140    3.5247 H         1 <0>         0.1308
     35 H8          1.3640    3.2793    2.0878 H         1 <0>         0.1398
     36 H9          0.7492    3.7577    0.4915 H         1 <0>         0.1555
     37 H10         1.3529    0.0994    0.4451 H         1 <0>         0.1703
     38 H11         2.3415    1.3818    1.1844 H         1 <0>         0.1637
     39 H12         3.4062    0.6039   -1.1931 H         1 <0>         0.4225
     40 H13         1.1573    2.5197   -3.1766 H         1 <0>         0.1531
     41 H14         1.7196    3.5745   -5.3275 H         1 <0>         0.1314
     42 H15         4.0400    3.5592   -6.1429 H         1 <0>         0.1311
     43 H16         5.8129    2.4958   -4.8084 H         1 <0>         0.1392
     44 H17         6.8902    0.5828   -3.9091 H         1 <0>         0.0943
     45 H18         6.9390    2.3542   -3.6313 H         1 <0>         0.0660
     46 H19         8.7906    1.6070   -2.2818 H         1 <0>         0.0817
     47 H20         7.9334    0.1101   -1.7880 H         1 <0>         0.0798
     48 H21         7.6039    2.9301   -0.7584 H         1 <0>         0.0741
     49 H22         7.3281    1.3794    0.0895 H         1 <0>         0.0776
     50 H23         5.3783    3.0498   -1.2825 H         1 <0>         0.0535
     51 H24         5.0939    1.5217   -0.4054 H         1 <0>         0.0718
     52 H25         0.2956   -0.9514    3.8667 H         1 <0>         0.4145
     53 H26         0.1212   -2.2347    2.7965 H         1 <0>         0.4257
     54 N4          0.2654    1.7975    1.0569 N.4       1 <0>        -0.3637
     55 H27        -0.4671    1.7551    0.3387 H         1 <0>         0.4454
@<TRIPOS>BOND
     1    1    6 ar
     2    1    2 ar
     3    1   29 1
     4    2    3 ar
     5    2   30 1
     6    3    4 ar
     7    3   31 1
     8    4   10 1
     9    4    5 ar
    10    5    6 ar
    11    5    7 1
    12    6   32 1
    13    7    8 1
    14    7   33 1
    15    7   34 1
    16    8    9 1
    17    8   26 1
    18    8   54 1
    19   10   35 1
    20   10   36 1
    21   10   54 1
    22   11   12 1
    23   11   37 1
    24   11   38 1
    25   11   54 1
    26   12   13 2
    27   12   14 am
    28   14   15 1
    29   14   39 1
    30   15   20 ar
    31   15   16 ar
    32   16   17 ar
    33   16   40 1
    34   17   18 ar
    35   17   41 1
    36   18   19 ar
    37   18   42 1
    38   19   20 ar
    39   19   43 1
    40   20   21 1
    41   21   25 1
    42   21   22 1
    43   22   23 1
    44   22   44 1
    45   22   45 1
    46   23   24 1
    47   23   46 1
    48   23   47 1
    49   24   25 1
    50   24   48 1
    51   24   49 1
    52   25   50 1
    53   25   51 1
    54   26   27 2
    55   26   28 am
    56   28   52 1
    57   28   53 1
    58   54   55 1
@<TRIPOS>MOLECULE
ZINC32955220
   54    57     0     0     0
SMALL
USER_CHARGES
1-[(10R)-8,10-bis(2-hydroxyphenyl)-3,7,11-triazaspiro[5.5]undec-7-en-3-yl]ethanone
@<TRIPOS>ATOM
      1 C1         -6.2111   -2.8839    0.2748 C.3       1 <0>        -0.1847
      2 C2         -5.1019   -2.7150    1.2809 C.2       1 <0>         0.5156
      3 O1         -5.2663   -3.0675    2.4296 O.2       1 <0>        -0.5342
      4 N1         -3.9273   -2.1721    0.9040 N.am      1 <0>        -0.6175
      5 C3         -3.6679   -1.8529   -0.5064 C.3       1 <0>         0.1135
      6 C4         -2.3558   -2.5198   -0.9302 C.3       1 <0>        -0.1324
      7 C5         -1.2376   -2.0896    0.0245 C.3       1 <0>         0.2342
      8 C6         -1.5786   -2.5545    1.4440 C.3       1 <0>        -0.1451
      9 C7         -2.8812   -1.8875    1.8958 C.3       1 <0>         0.1241
     10 N2          0.0230   -2.7166   -0.3971 N.4       1 <0>        -0.5650
     11 C8          1.1464   -2.1737    0.3856 C.3       1 <0>         0.1042
     12 H1          0.9141   -2.2821    1.4553 H         1 <0>         0.1461
     13 C9          1.3365   -0.7053   -0.0072 C.3       1 <0>        -0.1480
     14 C10         0.0036   -0.0099   -0.0041 C.2       1 <0>         0.2641
     15 N3         -1.1130   -0.6360    0.0102 N.2       1 <0>        -0.4868
     16 C11        -0.0186    1.4638   -0.0117 C.ar      1 <0>        -0.1425
     17 C12         1.1782    2.1845   -0.0216 C.ar      1 <0>        -0.0461
     18 C13         1.1504    3.5624   -0.0292 C.ar      1 <0>        -0.1671
     19 C14        -0.0594    4.2369   -0.0266 C.ar      1 <0>        -0.0409
     20 C15        -1.2497    3.5367   -0.0173 C.ar      1 <0>        -0.2248
     21 C16        -1.2406    2.1503   -0.0150 C.ar      1 <0>         0.2184
     22 O2         -2.4096    1.4610   -0.0111 O.3       1 <0>        -0.4742
     23 C17         2.4017   -2.9489    0.0786 C.ar      1 <0>        -0.1846
     24 C18         2.5186   -3.6299   -1.1179 C.ar      1 <0>        -0.0887
     25 C19         3.6699   -4.3412   -1.4001 C.ar      1 <0>        -0.1438
     26 C20         4.7074   -4.3728   -0.4863 C.ar      1 <0>        -0.0521
     27 C21         4.5958   -3.6929    0.7108 C.ar      1 <0>        -0.1991
     28 C22         3.4431   -2.9747    0.9946 C.ar      1 <0>         0.1938
     29 O3          3.3327   -2.3011    2.1697 O.3       1 <0>        -0.5119
     30 H2         -5.8779   -2.5098   -0.7045 H         1 <0>         0.0832
     31 H3         -7.0938   -2.3157    0.6034 H         1 <0>         0.1027
     32 H4         -6.4711   -3.9494    0.1912 H         1 <0>         0.0996
     33 H5         -4.4949   -2.2303   -1.1258 H         1 <0>         0.1057
     34 H6         -3.5876   -0.7625   -0.6268 H         1 <0>         0.1012
     35 H7         -2.4714   -3.6131   -0.8929 H         1 <0>         0.0949
     36 H8         -2.1029   -2.2126   -1.9557 H         1 <0>         0.0982
     37 H9         -1.7025   -3.6475    1.4520 H         1 <0>         0.0956
     38 H10        -0.7642   -2.2728    2.1277 H         1 <0>         0.0924
     39 H11        -2.7358   -0.7999    1.9735 H         1 <0>         0.0891
     40 H12        -3.1851   -2.2876    2.8744 H         1 <0>         0.1050
     41 H13        -0.0363   -3.8032   -0.2366 H         1 <0>         0.4501
     42 H14         2.0071   -0.2165    0.7148 H         1 <0>         0.1371
     43 H15         1.7774   -0.6490   -1.0134 H         1 <0>         0.1199
     44 H16         2.1238    1.6626   -0.0229 H         1 <0>         0.1328
     45 H17         2.0761    4.1187   -0.0368 H         1 <0>         0.1335
     46 H18        -0.0719    5.3168   -0.0322 H         1 <0>         0.1330
     47 H19        -2.1890    4.0698   -0.0153 H         1 <0>         0.1353
     48 H20        -3.3672    2.0022   -0.0137 H         1 <0>         0.4327
     49 H21         1.7097   -3.6067   -1.8331 H         1 <0>         0.1211
     50 H22         3.7594   -4.8728   -2.3359 H         1 <0>         0.1365
     51 H23         5.6059   -4.9292   -0.7091 H         1 <0>         0.1379
     52 H24         5.4065   -3.7176    1.4240 H         1 <0>         0.1409
     53 H25         4.1590   -2.3221    2.8955 H         1 <0>         0.4553
     54 H26         0.1952   -2.5124   -1.4642 H         1 <0>         0.4417
@<TRIPOS>BOND
     1    1    2 1
     2    1   30 1
     3    1   31 1
     4    1   32 1
     5    2    3 2
     6    2    4 am
     7    4    9 1
     8    4    5 1
     9    5    6 1
    10    5   33 1
    11    5   34 1
    12    6    7 1
    13    6   35 1
    14    6   36 1
    15    7   15 1
    16    7    8 1
    17    7   10 1
    18    8    9 1
    19    8   37 1
    20    8   38 1
    21    9   39 1
    22    9   40 1
    23   10   11 1
    24   10   41 1
    25   10   54 1
    26   11   12 1
    27   11   13 1
    28   11   23 1
    29   13   14 1
    30   13   42 1
    31   13   43 1
    32   14   15 2
    33   14   16 1
    34   16   21 ar
    35   16   17 ar
    36   17   18 ar
    37   17   44 1
    38   18   19 ar
    39   18   45 1
    40   19   20 ar
    41   19   46 1
    42   20   21 ar
    43   20   47 1
    44   21   22 1
    45   22   48 1
    46   23   28 ar
    47   23   24 ar
    48   24   25 ar
    49   24   49 1
    50   25   26 ar
    51   25   50 1
    52   26   27 ar
    53   26   51 1
    54   27   28 ar
    55   27   52 1
    56   28   29 1
    57   29   53 1
@<TRIPOS>MOLECULE
ZINC46526357
   47    49     0     0     0
SMALL
USER_CHARGES

@<TRIPOS>ATOM
      1 C1         -0.0178    1.4648    0.0101 C.3       1 <0>        -0.0679
      2 N1          0.0021   -0.0041    0.0020 N.4       1 <0>        -0.3724
      3 C2         -1.3761   -0.5125    0.0124 C.3       1 <0>         0.0410
      4 C3         -2.0674   -0.1162   -1.2666 C.ar      1 <0>        -0.1393
      5 C4         -2.7501    1.0853   -1.3366 C.ar      1 <0>        -0.0921
      6 C5         -3.3852    1.4543   -2.5043 C.ar      1 <0>        -0.0691
      7 C6         -3.3376    0.6125   -3.6172 C.ar      1 <0>         0.0238
      8 C7         -2.6464   -0.5983   -3.5397 C.ar      1 <0>        -0.0677
      9 C8         -2.0118   -0.9527   -2.3673 C.ar      1 <0>        -0.0886
     10 C9         -3.9949    0.9889   -4.8325 C.1       1 <0>         0.2250
     11 N2         -4.5164    1.2875   -5.7965 N.1       1 <0>        -0.3704
     12 C10         0.7126   -0.4907    1.1921 C.3       1 <0>        -0.0227
     13 C11         2.1584   -0.0720    1.1202 C.2       1 <0>         0.4957
     14 O1          2.5577    0.5687    0.1710 O.2       1 <0>        -0.4940
     15 N3          3.0078   -0.4095    2.1107 N.am      1 <0>        -0.5909
     16 C12         4.3382   -0.0242    2.0445 C.2       1 <0>        -0.0080
     17 C13         5.3446   -0.2829    2.9564 C.2       1 <0>        -0.1852
     18 C14         6.6758    0.2385    2.6510 C.2       1 <0>        -0.0950
     19 C15         6.7456    0.9198    1.4932 C.2       1 <0>        -0.2233
     20 S1          5.0981    0.8564    0.8363 S.3       1 <0>         0.3260
     21 C16         8.1338    1.4371    1.2297 C.3       1 <0>        -0.0372
     22 C17         8.8475    1.3541    2.5973 C.3       1 <0>        -0.1163
     23 C18         8.0603    0.2266    3.2954 C.3       1 <0>        -0.0631
     24 C19         5.0873   -1.0486    4.1801 C.2       1 <0>         0.5763
     25 O2          5.2133   -2.2591    4.1784 O.2       1 <0>        -0.5264
     26 N4          4.7112   -0.4118    5.3069 N.am      1 <0>        -0.8459
     27 H1          1.0047    1.8421    0.0024 H         1 <0>         0.1413
     28 H2         -0.5450    1.8259   -0.8730 H         1 <0>         0.1303
     29 H3         -0.5280    1.8163    0.9069 H         1 <0>         0.1232
     30 H4         -1.3618   -1.5992    0.0960 H         1 <0>         0.1443
     31 H5         -1.9129   -0.0898    0.8617 H         1 <0>         0.1444
     32 H6         -2.7861    1.7355   -0.4750 H         1 <0>         0.1442
     33 H7         -3.9183    2.3921   -2.5573 H         1 <0>         0.1479
     34 H8         -2.6057   -1.2541   -4.3968 H         1 <0>         0.1479
     35 H9         -1.4734   -1.8870   -2.3072 H         1 <0>         0.1442
     36 H10         0.2557   -0.0671    2.0865 H         1 <0>         0.1686
     37 H11         0.6508   -1.5782    1.2328 H         1 <0>         0.1692
     38 H12         2.6885   -0.9219    2.8699 H         1 <0>         0.4268
     39 H13         8.6410    0.8086    0.4977 H         1 <0>         0.0910
     40 H14         8.0951    2.4699    0.8833 H         1 <0>         0.0848
     41 H15         9.8953    1.0801    2.4745 H         1 <0>         0.0899
     42 H16         8.7527    2.2922    3.1443 H         1 <0>         0.0803
     43 H17         7.9810    0.4272    4.3638 H         1 <0>         0.0764
     44 H18         8.5470   -0.7339    3.1262 H         1 <0>         0.0870
     45 H19         4.6108    0.5530    5.3083 H         1 <0>         0.4043
     46 H20         4.5410   -0.9183    6.1164 H         1 <0>         0.4075
     47 H21         0.4744   -0.3295   -0.8281 H         1 <0>         0.4341
@<TRIPOS>BOND
     1    1    2 1
     2    1   27 1
     3    1   28 1
     4    1   29 1
     5    2    3 1
     6    2   12 1
     7    2   47 1
     8    3    4 1
     9    3   30 1
    10    3   31 1
    11    4    9 ar
    12    4    5 ar
    13    5    6 ar
    14    5   32 1
    15    6    7 ar
    16    6   33 1
    17    7    8 ar
    18    7   10 1
    19    8    9 ar
    20    8   34 1
    21    9   35 1
    22   10   11 3
    23   12   13 1
    24   12   36 1
    25   12   37 1
    26   13   14 2
    27   13   15 am
    28   15   16 1
    29   15   38 1
    30   16   20 1
    31   16   17 2
    32   17   18 1
    33   17   24 1
    34   18   23 1
    35   18   19 2
    36   19   20 1
    37   19   21 1
    38   21   22 1
    39   21   39 1
    40   21   40 1
    41   22   23 1
    42   22   41 1
    43   22   42 1
    44   23   43 1
    45   23   44 1
    46   24   25 2
    47   24   26 am
    48   26   45 1
    49   26   46 1
@<TRIPOS>MOLECULE
ZINC40267489
   62    64     0     0     0
SMALL
USER_CHARGES

@<TRIPOS>ATOM
      1 C1         -0.5446    2.3840   -0.6351 C.3       1 <0>        -0.1685
      2 C2         -0.4314    0.8589   -0.6827 C.3       1 <0>         0.1345
      3 C3          0.4168    0.3735    0.4945 C.3       1 <0>        -0.1705
      4 N1         -1.7688    0.2671   -0.5979 N.am      1 <0>        -0.5454
      5 C4         -2.3191   -0.5556   -1.5814 C.ar      1 <0>         0.1635
      6 C5         -1.7983   -0.9964   -2.7966 C.ar      1 <0>        -0.1393
      7 C6         -2.5464   -1.8189   -3.6130 C.ar      1 <0>        -0.0655
      8 C7         -3.8169   -2.2124   -3.2339 C.ar      1 <0>        -0.1420
      9 C8         -4.3409   -1.7787   -2.0286 C.ar      1 <0>        -0.0454
     10 C9         -3.5962   -0.9577   -1.2119 C.ar      1 <0>        -0.1741
     11 C10        -3.8691   -0.3243    0.1329 C.3       1 <0>         0.1616
     12 H1         -4.0364   -1.0911    0.8893 H         1 <0>         0.1416
     13 C11        -2.6042    0.4494    0.4387 C.2       1 <0>         0.5197
     14 O1         -2.3864    1.1108    1.4317 O.2       1 <0>        -0.4723
     15 N2         -5.0224    0.5755    0.0520 N.am      1 <0>        -0.6765
     16 C12        -5.7452    0.8455    1.1570 C.2       1 <0>         0.5092
     17 O2         -5.4408    0.3433    2.2190 O.2       1 <0>        -0.4961
     18 C13        -6.9218    1.7634    1.0745 C.2       1 <0>         0.5206
     19 O3         -7.2262    2.2656    0.0126 O.2       1 <0>        -0.5059
     20 N3         -7.6446    2.0334    2.1795 N.am      1 <0>        -0.7017
     21 C14        -8.8006    2.9352    2.0984 C.3       1 <0>         0.1379
     22 C15       -10.0398    2.1293    1.7045 C.3       1 <0>        -0.1455
     23 C16       -11.2552    3.0528    1.6277 C.3       1 <0>         0.0601
     24 N4        -11.4484    3.8079    2.8567 N.4       1 <0>        -0.4915
     25 C17       -10.2847    4.4540    3.4425 C.3       1 <0>         0.0629
     26 C18        -9.0505    3.5588    3.4711 C.3       1 <0>        -0.1431
     27 C19       -10.6349    4.7993    4.9096 C.3       1 <0>        -0.1804
     28 C20        -9.9561    5.7739    2.7397 C.3       1 <0>        -0.1759
     29 C21       -11.1520    3.9618    0.4036 C.3       1 <0>        -0.1717
     30 C22       -12.4998    2.1568    1.4297 C.3       1 <0>        -0.1796
     31 H2          0.4505    2.8243   -0.6983 H         1 <0>         0.0778
     32 H3         -1.1488    2.7298   -1.4738 H         1 <0>         0.0593
     33 H4         -1.0161    2.6843    0.3006 H         1 <0>         0.0707
     34 H5          0.0401    0.5586   -1.6185 H         1 <0>         0.0984
     35 H6          0.4974   -0.7130    0.4606 H         1 <0>         0.0616
     36 H7          1.4119    0.8138    0.4314 H         1 <0>         0.0777
     37 H8         -0.0548    0.6738    1.4303 H         1 <0>         0.0723
     38 H9         -0.8070   -0.6932   -3.0998 H         1 <0>         0.1307
     39 H10        -2.1378   -2.1572   -4.5538 H         1 <0>         0.1369
     40 H11        -4.3988   -2.8562   -3.8768 H         1 <0>         0.1351
     41 H12        -5.3325   -2.0841   -1.7290 H         1 <0>         0.1301
     42 H13        -5.2657    0.9769   -0.7968 H         1 <0>         0.4203
     43 H14        -7.4013    1.6320    3.0284 H         1 <0>         0.4200
     44 H15        -8.5961    3.7066    1.3615 H         1 <0>         0.1115
     45 H16        -9.8754    1.6635    0.7313 H         1 <0>         0.1157
     46 H17       -10.2196    1.3514    2.4481 H         1 <0>         0.0955
     47 H18       -12.1618    4.5211    2.6867 H         1 <0>         0.4271
     48 H19        -9.1953    2.7641    4.2078 H         1 <0>         0.0994
     49 H20        -8.1788    4.1500    3.7638 H         1 <0>         0.1193
     50 H21       -10.8755    3.8842    5.4508 H         1 <0>         0.0828
     51 H22        -9.7819    5.2869    5.3816 H         1 <0>         0.1079
     52 H23       -11.4939    5.4700    4.9300 H         1 <0>         0.0854
     53 H24       -10.8433    6.4069    2.7220 H         1 <0>         0.0843
     54 H25        -9.1570    6.2832    3.2784 H         1 <0>         0.1063
     55 H26        -9.6339    5.5712    1.7183 H         1 <0>         0.0830
     56 H27       -11.2164    3.3596   -0.5026 H         1 <0>         0.1064
     57 H28       -11.9676    4.6848    0.4181 H         1 <0>         0.0822
     58 H29       -10.1984    4.4894    0.4222 H         1 <0>         0.0833
     59 H30       -12.5919    1.4715    2.2724 H         1 <0>         0.0819
     60 H31       -13.3912    2.7812    1.3700 H         1 <0>         0.0844
     61 H32       -12.3935    1.5860    0.5072 H         1 <0>         0.1070
     62 H33       -11.8556    3.1826    3.5567 H         1 <0>         0.4254
@<TRIPOS>BOND
     1    1    2 1
     2    1   31 1
     3    1   32 1
     4    1   33 1
     5    2    3 1
     6    2    4 1
     7    2   34 1
     8    3   35 1
     9    3   36 1
    10    3   37 1
    11    4   13 am
    12    4    5 1
    13    5   10 ar
    14    5    6 ar
    15    6    7 ar
    16    6   38 1
    17    7    8 ar
    18    7   39 1
    19    8    9 ar
    20    8   40 1
    21    9   10 ar
    22    9   41 1
    23   10   11 1
    24   11   12 1
    25   11   13 1
    26   11   15 1
    27   13   14 2
    28   15   16 am
    29   15   42 1
    30   16   17 2
    31   16   18 1
    32   18   19 2
    33   18   20 am
    34   20   21 1
    35   20   43 1
    36   21   26 1
    37   21   22 1
    38   21   44 1
    39   22   23 1
    40   22   45 1
    41   22   46 1
    42   23   24 1
    43   23   29 1
    44   23   30 1
    45   24   25 1
    46   24   47 1
    47   24   62 1
    48   25   26 1
    49   25   27 1
    50   25   28 1
    51   26   48 1
    52   26   49 1
    53   27   50 1
    54   27   51 1
    55   27   52 1
    56   28   53 1
    57   28   54 1
    58   28   55 1
    59   29   56 1
    60   29   57 1
    61   29   58 1
    62   30   59 1
    63   30   60 1
    64   30   61 1
@<TRIPOS>MOLECULE
ZINC66390428
   55    56     0     0     0
SMALL
USER_CHARGES

@<TRIPOS>ATOM
      1 C1         -0.0482    1.3072   -0.2535 C.3       1 <0>        -0.1850
      2 C2         -0.0363   -0.1985    0.0174 C.3       1 <0>         0.0027
      3 H1          0.4778   -0.7101   -0.7963 H         1 <0>         0.1741
      4 C3         -1.4532   -0.7030    0.1122 C.2       1 <0>         0.5139
      5 O1         -1.8417   -1.2308    1.1322 O.2       1 <0>        -0.4492
      6 N1         -2.2884   -0.5675   -0.9368 N.am      1 <0>        -0.6745
      7 C4         -3.5556   -1.0187   -0.8520 C.2       1 <0>         0.6916
      8 O2         -3.9451   -1.5478    0.1705 O.2       1 <0>        -0.5154
      9 N2         -4.3908   -0.8831   -1.9010 N.am      1 <0>        -0.7221
     10 C5         -5.7682   -1.3736   -1.8088 C.3       1 <0>         0.1499
     11 C6         -6.6525   -0.5972   -2.7866 C.3       1 <0>        -0.1641
     12 C7         -5.8041   -2.8622   -2.1603 C.3       1 <0>        -0.1683
     13 N3          0.6633   -0.4631    1.2817 N.4       1 <0>        -0.5025
     14 C8          2.0756   -0.0810    1.1491 C.3       1 <0>        -0.0180
     15 C9          2.8331   -0.4802    2.4170 C.3       1 <0>        -0.0282
     16 C10         2.1385    0.1249    3.6409 C.3       1 <0>        -0.1681
     17 C11         2.1901    1.6519    3.5441 C.3       1 <0>         0.0532
     18 O3          3.5514    2.0761    3.4486 O.3       1 <0>        -0.3632
     19 C12         4.2379    1.5795    2.2978 C.3       1 <0>         0.0510
     20 C13         4.2685    0.0496    2.3445 C.3       1 <0>        -0.1414
     21 C14         2.8556   -1.9820    2.5391 C.ar      1 <0>        -0.1147
     22 C15         2.3801   -2.7663    1.5047 C.ar      1 <0>        -0.1304
     23 C16         2.4007   -4.1437    1.6153 C.ar      1 <0>        -0.1347
     24 C17         2.8976   -4.7382    2.7628 C.ar      1 <0>         0.1181
     25 C18         3.3735   -3.9517    3.7982 C.ar      1 <0>        -0.1320
     26 C19         3.3568   -2.5746    3.6832 C.ar      1 <0>        -0.0681
     27 F1          2.9177   -6.0846    2.8723 F         1 <0>        -0.1254
     28 H2          0.9767    1.6721   -0.3221 H         1 <0>         0.1028
     29 H3         -0.5673    1.5036   -1.1916 H         1 <0>         0.1157
     30 H4         -0.5623    1.8188    0.5602 H         1 <0>         0.0947
     31 H5         -1.9776   -0.1452   -1.7528 H         1 <0>         0.4175
     32 H6         -4.0800   -0.4609   -2.7171 H         1 <0>         0.4016
     33 H7         -6.1374   -1.2310   -0.7932 H         1 <0>         0.0946
     34 H8         -6.2833   -0.7397   -3.8022 H         1 <0>         0.0649
     35 H9         -7.6774   -0.9621   -2.7180 H         1 <0>         0.0825
     36 H10        -6.6269    0.4634   -2.5362 H         1 <0>         0.0646
     37 H11        -5.1741   -3.4153   -1.4637 H         1 <0>         0.0604
     38 H12        -6.8290   -3.2271   -2.0917 H         1 <0>         0.0752
     39 H13        -5.4349   -3.0048   -3.1759 H         1 <0>         0.0600
     40 H14         0.2372    0.0753    2.0210 H         1 <0>         0.4325
     41 H15         2.5109   -0.5913    0.2899 H         1 <0>         0.1469
     42 H16         2.1484    0.9972    1.0066 H         1 <0>         0.1464
     43 H17         1.0995   -0.2033    3.6694 H         1 <0>         0.0743
     44 H18         2.6492   -0.2001    4.5473 H         1 <0>         0.1095
     45 H19         1.6445    1.9787    2.6589 H         1 <0>         0.0445
     46 H20         1.7350    2.0881    4.4334 H         1 <0>         0.1130
     47 H21         3.7191    1.9053    1.3963 H         1 <0>         0.0525
     48 H22         5.2580    1.9634    2.2893 H         1 <0>         0.1127
     49 H23         4.8222   -0.2770    3.2248 H         1 <0>         0.0999
     50 H24         4.7529   -0.3326    1.4459 H         1 <0>         0.0927
     51 H25         1.9922   -2.3024    0.6099 H         1 <0>         0.1193
     52 H26         2.0289   -4.7561    0.8072 H         1 <0>         0.1456
     53 H27         3.7611   -4.4143    4.6939 H         1 <0>         0.1489
     54 H28         3.7321   -1.9610    4.4888 H         1 <0>         0.1431
     55 H29         0.6000   -1.4458    1.5019 H         1 <0>         0.4348
@<TRIPOS>BOND
     1    1    2 1
     2    1   28 1
     3    1   29 1
     4    1   30 1
     5    2    3 1
     6    2    4 1
     7    2   13 1
     8    4    5 2
     9    4    6 am
    10    6    7 am
    11    6   31 1
    12    7    8 2
    13    7    9 am
    14    9   10 1
    15    9   32 1
    16   10   11 1
    17   10   12 1
    18   10   33 1
    19   11   34 1
    20   11   35 1
    21   11   36 1
    22   12   37 1
    23   12   38 1
    24   12   39 1
    25   13   14 1
    26   13   40 1
    27   13   55 1
    28   14   15 1
    29   14   41 1
    30   14   42 1
    31   15   20 1
    32   15   16 1
    33   15   21 1
    34   16   17 1
    35   16   43 1
    36   16   44 1
    37   17   18 1
    38   17   45 1
    39   17   46 1
    40   18   19 1
    41   19   20 1
    42   19   47 1
    43   19   48 1
    44   20   49 1
    45   20   50 1
    46   21   26 ar
    47   21   22 ar
    48   22   23 ar
    49   22   51 1
    50   23   24 ar
    51   23   52 1
    52   24   25 ar
    53   24   27 1
    54   25   26 ar
    55   25   53 1
    56   26   54 1
@<TRIPOS>MOLECULE
ZINC09347915
   38    40     0     0     0
SMALL
USER_CHARGES
2-hydroxy-4-[2-[4-oxo-5-(2-thienylmethylene)-2-thioxo-thiazolidin-3-yl]acetyl]amino-benzoic acid
@<TRIPOS>ATOM
      1 C1         -1.2524    3.1314   -0.1769 C.2       1 <0>        -0.1801
      2 C2         -0.1821    2.2721   -0.2057 C.2       1 <0>        -0.0764
      3 C3          1.0856    2.8419   -0.1575 C.2       1 <0>        -0.2132
      4 S1          0.7015    4.5817   -0.0653 S.3       1 <0>         0.1705
      5 C4         -1.0281    4.4690   -0.0939 C.2       1 <0>        -0.1756
      6 C5          2.3494    2.2077   -0.1770 C.2       1 <0>         0.1488
      7 C6          3.4883    2.9553   -0.1205 C.2       1 <0>        -0.2578
      8 C7          4.8527    2.5341   -0.1268 C.2       1 <0>         0.5534
      9 O1          5.1444    1.3532   -0.1894 O.2       1 <0>        -0.4616
     10 N1          5.7897    3.4641   -0.0630 N.am      1 <0>        -0.5073
     11 C8          5.4656    4.7744    0.0060 C.2       1 <0>         0.2853
     12 S2          6.5036    6.1329    0.0950 S.2       1 <0>        -0.3174
     13 S3          3.6801    4.7300   -0.0263 S.3       1 <0>         0.0674
     14 C9          7.2003    3.0688   -0.0668 C.3       1 <0>         0.0672
     15 C10         7.7023    3.0121   -1.4865 C.2       1 <0>         0.5052
     16 O2          6.9554    3.2759   -2.4048 O.2       1 <0>        -0.5026
     17 N2          8.9814    2.6682   -1.7358 N.am      1 <0>        -0.6576
     18 C11         9.4168    2.5085   -3.0507 C.ar      1 <0>         0.1463
     19 C12         8.5438    2.0092   -4.0149 C.ar      1 <0>        -0.1419
     20 C13         8.9580    1.8533   -5.3061 C.ar      1 <0>        -0.0461
     21 C14        10.2685    2.1849   -5.6675 C.ar      1 <0>        -0.1478
     22 C15        11.1534    2.6833   -4.6983 C.ar      1 <0>         0.1543
     23 C16        10.7204    2.8422   -3.3929 C.ar      1 <0>        -0.1857
     24 O3         12.4256    3.0079   -5.0390 O.3       1 <0>        -0.4731
     25 C17        10.7175    2.0113   -7.0580 C.2       1 <0>         0.4889
     26 O4         11.8565    2.2996   -7.3693 O.co2     1 <0>        -0.6163
     27 H1         -2.2614    2.7483   -0.2160 H         1 <0>         0.1430
     28 H2         -0.3184    1.2025   -0.2676 H         1 <0>         0.1502
     29 H3         -1.7526    5.2692   -0.0580 H         1 <0>         0.1933
     30 H4          2.4125    1.1312   -0.2367 H         1 <0>         0.1763
     31 H5          7.7834    3.7978    0.4959 H         1 <0>         0.1426
     32 H6          7.3037    2.0867    0.3947 H         1 <0>         0.1389
     33 H7          9.5991    2.5319   -1.0004 H         1 <0>         0.4102
     34 H8          7.5327    1.7476   -3.7400 H         1 <0>         0.1268
     35 H9          8.2746    1.4693   -6.0490 H         1 <0>         0.1375
     36 H10        11.3955    3.2254   -2.6421 H         1 <0>         0.1272
     37 H11        13.0545    2.2787   -4.9514 H         1 <0>         0.3856
     38 O5          9.8658    1.5325   -7.9865 O.co2     1 <0>        -0.7584
@<TRIPOS>BOND
     1    1    5 2
     2    1    2 1
     3    1   27 1
     4    2    3 2
     5    2   28 1
     6    3    4 1
     7    3    6 1
     8    4    5 1
     9    5   29 1
    10    6    7 2
    11    6   30 1
    12    7   13 1
    13    7    8 1
    14    8    9 2
    15    8   10 am
    16   10   11 1
    17   10   14 1
    18   11   12 2
    19   11   13 1
    20   14   15 1
    21   14   31 1
    22   14   32 1
    23   15   16 2
    24   15   17 am
    25   17   18 1
    26   17   33 1
    27   18   23 ar
    28   18   19 ar
    29   19   20 ar
    30   19   34 1
    31   20   21 ar
    32   20   35 1
    33   21   22 ar
    34   21   25 1
    35   22   23 ar
    36   22   24 1
    37   23   36 1
    38   24   37 1
    39   25   26 2
    40   25   38 1
@<TRIPOS>MOLECULE
ZINC16930016
   45    47     0     0     0
SMALL
USER_CHARGES
(2R)-2-[2-[(Z)-[3-[(2-hydroxybenzoyl)amino]-4-oxo-2-thioxo-thiazolidin-5-ylidene]methyl]phenoxy]propanoic acid
@<TRIPOS>ATOM
      1 C1          0.5573    2.8710   -0.1925 C.3       1 <0>        -0.1578
      2 C2          1.5175    2.6956   -1.3707 C.3       1 <0>         0.0337
      3 H1          1.1137    3.2025   -2.2471 H         1 <0>         0.0802
      4 C3          1.6820    1.2279   -1.6705 C.2       1 <0>         0.4727
      5 O1          2.7566    0.6970   -1.5186 O.co2     1 <0>        -0.6099
      6 O2          2.7879    3.2590   -1.0378 O.3       1 <0>        -0.2751
      7 C4          2.9483    4.5890   -1.2560 C.ar      1 <0>         0.1980
      8 C5          1.8767    5.3595   -1.6773 C.ar      1 <0>        -0.2227
      9 C6          2.0411    6.7134   -1.8992 C.ar      1 <0>        -0.0394
     10 C7          3.2750    7.3124   -1.7028 C.ar      1 <0>        -0.1701
     11 C8          4.3529    6.5635   -1.2845 C.ar      1 <0>        -0.0466
     12 C9          4.2001    5.1919   -1.0501 C.ar      1 <0>        -0.1585
     13 C10         5.3418    4.3880   -0.5976 C.2       1 <0>         0.1517
     14 C11         6.6065    4.8551   -0.7570 C.2       1 <0>        -0.2802
     15 C12         7.8828    4.3052   -0.2581 C.2       1 <0>         0.5479
     16 O3          7.9239    3.2854    0.4049 O.2       1 <0>        -0.4473
     17 N1          8.9790    4.9766   -0.5685 N.am      1 <0>        -0.3202
     18 C13         8.9291    6.1058   -1.3041 C.2       1 <0>         0.2669
     19 S1         10.2247    7.1061   -1.8058 S.2       1 <0>        -0.3441
     20 S2          7.1853    6.3006   -1.6351 S.3       1 <0>         0.1112
     21 N2         10.2204    4.5039   -0.1233 N.am      1 <0>        -0.5246
     22 C14        11.0608    3.9003   -0.9870 C.2       1 <0>         0.5730
     23 O4         10.7415    3.7661   -2.1525 O.2       1 <0>        -0.4857
     24 C15        12.3681    3.4025   -0.5183 C.ar      1 <0>        -0.1552
     25 C16        12.7414    3.5597    0.8188 C.ar      1 <0>        -0.0660
     26 C17        13.9618    3.0883    1.2513 C.ar      1 <0>        -0.1359
     27 C18        14.8259    2.4678    0.3638 C.ar      1 <0>        -0.0708
     28 C19        14.4717    2.3105   -0.9613 C.ar      1 <0>        -0.1547
     29 C20        13.2449    2.7743   -1.4129 C.ar      1 <0>         0.1794
     30 O5         12.8958    2.6208   -2.7147 O.3       1 <0>        -0.4772
     31 H2         -0.4117    2.4412   -0.4464 H         1 <0>         0.0820
     32 H3          0.9612    2.3641    0.6839 H         1 <0>         0.0633
     33 H4          0.4384    3.9325    0.0244 H         1 <0>         0.0520
     34 H5          0.9113    4.9010   -1.8330 H         1 <0>         0.1429
     35 H6          1.2020    7.3088   -2.2276 H         1 <0>         0.1318
     36 H7          3.3923    8.3715   -1.8788 H         1 <0>         0.1321
     37 H8          5.3129    7.0346   -1.1331 H         1 <0>         0.1346
     38 H9          5.1757    3.4250   -0.1378 H         1 <0>         0.1721
     39 H10        10.4751    4.6110    0.8065 H         1 <0>         0.4261
     40 H11        12.0729    4.0468    1.5132 H         1 <0>         0.1292
     41 H12        14.2477    3.2067    2.2860 H         1 <0>         0.1351
     42 H13        15.7824    2.1053    0.7104 H         1 <0>         0.1347
     43 H14        15.1509    1.8260   -1.6472 H         1 <0>         0.1396
     44 H15        13.1602    3.3577   -3.2823 H         1 <0>         0.3994
     45 O6          0.6345    0.5105   -2.1064 O.co2     1 <0>        -0.7476
@<TRIPOS>BOND
     1    1    2 1
     2    1   31 1
     3    1   32 1
     4    1   33 1
     5    2    3 1
     6    2    4 1
     7    2    6 1
     8    4    5 2
     9    4   45 1
    10    6    7 1
    11    7   12 ar
    12    7    8 ar
    13    8    9 ar
    14    8   34 1
    15    9   10 ar
    16    9   35 1
    17   10   11 ar
    18   10   36 1
    19   11   12 ar
    20   11   37 1
    21   12   13 1
    22   13   14 2
    23   13   38 1
    24   14   20 1
    25   14   15 1
    26   15   16 2
    27   15   17 am
    28   17   18 1
    29   17   21 1
    30   18   19 2
    31   18   20 1
    32   21   22 am
    33   21   39 1
    34   22   23 2
    35   22   24 1
    36   24   29 ar
    37   24   25 ar
    38   25   26 ar
    39   25   40 1
    40   26   27 ar
    41   26   41 1
    42   27   28 ar
    43   27   42 1
    44   28   29 ar
    45   28   43 1
    46   29   30 1
    47   30   44 1
@<TRIPOS>MOLECULE
ZINC34087043
   51    54     0     0     0
SMALL
USER_CHARGES

@<TRIPOS>ATOM
      1 C1          0.0878    1.5650   -0.1641 C.3       1 <0>        -0.1421
      2 C2          0.1224    0.0355   -0.1432 C.3       1 <0>         0.3309
      3 C3         -1.2973   -0.5094    0.0569 C.3       1 <0>        -0.1491
      4 C4         -1.2266   -2.0361   -0.0807 C.3       1 <0>        -0.0328
      5 H1         -2.1751   -2.4805    0.2212 H         1 <0>         0.0971
      6 C5         -0.1120   -2.5693    0.7827 C.ar      1 <0>        -0.1344
      7 C6         -0.1023   -3.9175    1.1008 C.ar      1 <0>        -0.0351
      8 C7          0.9038   -4.4408    1.8889 C.ar      1 <0>        -0.1472
      9 C8          1.9086   -3.6181    2.3642 C.ar      1 <0>        -0.0925
     10 C9          1.9042   -2.2742    2.0512 C.ar      1 <0>        -0.1575
     11 C10         0.8914   -1.7437    1.2588 C.ar      1 <0>         0.1290
     12 O1          0.9255   -0.4125    0.9538 O.3       1 <0>        -0.3272
     13 C11        -0.9404   -2.3646   -1.5508 C.3       1 <0>        -0.1696
     14 H2         -1.8179   -2.1290   -2.1530 H         1 <0>         0.0996
     15 C12         0.2283   -1.5507   -2.0295 C.2       1 <0>         0.5469
     16 O2          0.7887   -1.8936   -3.0490 O.2       1 <0>        -0.5206
     17 N1          0.6896   -0.4588   -1.3924 N.am      1 <0>        -0.6177
     18 C13         1.8153    0.2763   -1.9742 C.3       1 <0>         0.1183
     19 C14         3.1291   -0.2906   -1.4326 C.3       1 <0>        -0.1102
     20 C15         4.2872    0.4656   -2.0311 C.ar      1 <0>        -0.0052
     21 C16         4.8534    0.0373   -3.2172 C.ar      1 <0>        -0.1333
     22 C17         5.9156    0.7309   -3.7661 C.ar      1 <0>        -0.0156
     23 C18         6.4114    1.8532   -3.1292 C.ar      1 <0>        -0.6853
     24 C19         5.8446    2.2820   -1.9436 C.ar      1 <0>        -0.0186
     25 C20         4.7796    1.5909   -1.3968 C.ar      1 <0>        -0.1393
     26 S1          7.7661    2.7367   -3.8284 S.o2      1 <0>         2.7028
     27 O3          8.3931    3.4314   -2.7591 O.2       1 <0>        -0.9677
     28 O4          8.4672    1.8176   -4.6547 O.2       1 <0>        -0.9662
     29 N2          7.1321    3.8892   -4.8344 N.pl3     1 <0>        -1.2510
     30 C21        -0.6188   -3.8308   -1.6841 C.2       1 <0>         0.5200
     31 O5         -1.5108   -4.6332   -1.9013 O.co2     1 <0>        -0.6947
     32 O6          0.5332   -4.2147   -1.5748 O.co2     1 <0>        -0.6615
     33 H3          1.1014    1.9498   -0.2767 H         1 <0>         0.0746
     34 H4         -0.5242    1.9032   -1.0002 H         1 <0>         0.0827
     35 H5         -0.3383    1.9316    0.7698 H         1 <0>         0.0801
     36 H6         -1.6597   -0.2434    1.0499 H         1 <0>         0.0924
     37 H7         -1.9622   -0.0993   -0.7033 H         1 <0>         0.0885
     38 H8         -0.8856   -4.5626    0.7309 H         1 <0>         0.1252
     39 H9          0.9060   -5.4926    2.1339 H         1 <0>         0.1176
     40 H10         2.6960   -4.0270    2.9800 H         1 <0>         0.1201
     41 H11         2.6892   -1.6323    2.4228 H         1 <0>         0.1198
     42 H12         1.7949    0.1730   -3.0591 H         1 <0>         0.0846
     43 H13         1.7373    1.3304   -1.7080 H         1 <0>         0.0802
     44 H14         3.1496   -0.1873   -0.3477 H         1 <0>         0.0851
     45 H15         3.2071   -1.3447   -1.6988 H         1 <0>         0.0880
     46 H16         4.4660   -0.8395   -3.7148 H         1 <0>         0.1383
     47 H17         6.3584    0.3959   -4.6925 H         1 <0>         0.1418
     48 H18         6.2321    3.1586   -1.4458 H         1 <0>         0.1407
     49 H19         4.3344    1.9281   -0.4725 H         1 <0>         0.1340
     50 H20         6.1708    3.9668   -4.9380 H         1 <0>         0.4172
     51 H21         7.7220    4.4867   -5.3200 H         1 <0>         0.4190
@<TRIPOS>BOND
     1    1    2 1
     2    1   33 1
     3    1   34 1
     4    1   35 1
     5    2   12 1
     6    2   17 1
     7    2    3 1
     8    3    4 1
     9    3   36 1
    10    3   37 1
    11    4    5 1
    12    4    6 1
    13    4   13 1
    14    6   11 ar
    15    6    7 ar
    16    7    8 ar
    17    7   38 1
    18    8    9 ar
    19    8   39 1
    20    9   10 ar
    21    9   40 1
    22   10   11 ar
    23   10   41 1
    24   11   12 1
    25   13   14 1
    26   13   15 1
    27   13   30 1
    28   15   16 2
    29   15   17 am
    30   17   18 1
    31   18   19 1
    32   18   42 1
    33   18   43 1
    34   19   20 1
    35   19   44 1
    36   19   45 1
    37   20   25 ar
    38   20   21 ar
    39   21   22 ar
    40   21   46 1
    41   22   23 ar
    42   22   47 1
    43   23   24 ar
    44   23   26 1
    45   24   25 ar
    46   24   48 1
    47   25   49 1
    48   26   27 2
    49   26   28 2
    50   26   29 1
    51   29   50 1
    52   29   51 1
    53   30   31 2
    54   30   32 1
@<TRIPOS>MOLECULE
ZINC40384476
   31    32     0     0     0
SMALL
USER_CHARGES

@<TRIPOS>ATOM
      1 C1         -0.0184    1.5028    0.0103 C.3       1 <0>        -0.0712
      2 C2          0.0021   -0.0041    0.0020 C.2       1 <0>        -0.1328
      3 C3         -1.0392   -0.8719    0.0017 C.2       1 <0>        -0.1896
      4 C4         -0.7802   -2.2296   -0.0075 C.2       1 <0>        -0.0302
      5 C5          0.5074   -2.6532   -0.0160 C.2       1 <0>        -0.6827
      6 S1          1.4039   -1.1093   -0.0179 S.3       1 <0>         0.1471
      7 S2          1.1337   -4.3001   -0.0287 S.o2      1 <0>         2.6397
      8 O1          2.4446   -4.2402    0.5164 O.2       1 <0>        -1.0117
      9 O2          0.1166   -5.1256    0.5220 O.2       1 <0>        -1.0124
     10 N1          1.3003   -4.7483   -1.6141 N.2       1 <0>        -1.0532
     11 C6          1.7832   -6.0200   -1.9336 C.ar      1 <0>         0.3478
     12 C7          2.1185   -6.9115   -0.9226 C.ar      1 <0>        -0.2714
     13 C8          2.5950   -8.1678   -1.2416 C.ar      1 <0>         0.0388
     14 C9          2.7387   -8.5392   -2.5660 C.ar      1 <0>        -0.7706
     15 C10         2.4061   -7.6547   -3.5754 C.ar      1 <0>         0.0510
     16 C11         1.9237   -6.3979   -3.2635 C.ar      1 <0>        -0.1623
     17 Br1         1.4622   -5.1912   -4.6444 Br        1 <0>        -0.0601
     18 S3          3.3477  -10.1430   -2.9680 S.o2      1 <0>         2.7085
     19 O3          3.9047  -10.0508   -4.2721 O.2       1 <0>        -0.9790
     20 O4          4.1015  -10.5840   -1.8471 O.2       1 <0>        -0.9782
     21 N2          2.0377  -11.1495   -3.0830 N.pl3     1 <0>        -1.2540
     22 H1          1.0042    1.8801    0.0026 H         1 <0>         0.0741
     23 H2         -0.5455    1.8639   -0.8728 H         1 <0>         0.0830
     24 H3         -0.5286    1.8543    0.9071 H         1 <0>         0.0819
     25 H4         -2.0560   -0.5079    0.0090 H         1 <0>         0.1363
     26 H5         -1.5916   -2.9424   -0.0076 H         1 <0>         0.1427
     27 H6          2.0069   -6.6223    0.1120 H         1 <0>         0.1142
     28 H7          2.8561   -8.8611   -0.4558 H         1 <0>         0.1295
     29 H8          2.5199   -7.9478   -4.6087 H         1 <0>         0.1350
     30 H9          2.0622  -11.9107   -3.6838 H         1 <0>         0.4137
     31 H10         1.2459  -10.9779   -2.5496 H         1 <0>         0.4163
@<TRIPOS>BOND
     1    1    2 1
     2    1   22 1
     3    1   23 1
     4    1   24 1
     5    2    6 1
     6    2    3 2
     7    3    4 1
     8    3   25 1
     9    4    5 2
    10    4   26 1
    11    5    6 1
    12    5    7 1
    13    7    8 2
    14    7    9 2
    15    7   10 1
    16   10   11 1
    17   11   16 ar
    18   11   12 ar
    19   12   13 ar
    20   12   27 1
    21   13   14 ar
    22   13   28 1
    23   14   15 ar
    24   14   18 1
    25   15   16 ar
    26   15   29 1
    27   16   17 1
    28   18   19 2
    29   18   20 2
    30   18   21 1
    31   21   30 1
    32   21   31 1
@<TRIPOS>MOLECULE
ZINC59460974
   42    44     0     0     0
SMALL
USER_CHARGES

@<TRIPOS>ATOM
      1 C1         -0.0187    1.5258    0.0104 C.3       1 <0>        -0.1458
      2 C2          0.0021   -0.0041    0.0020 C.3       1 <0>        -0.0026
      3 C3         -1.4117   -0.5257    0.0127 C.2       1 <0>        -0.0316
      4 N1         -2.2136   -0.8188   -0.9907 N.2       1 <0>        -0.2321
      5 N2         -3.3845   -1.2517   -0.8112 N.2       1 <0>        -0.4356
      6 C4         -3.8820   -1.4390    0.4040 C.2       1 <0>         0.4260
      7 S1         -2.4780   -0.9313    1.3927 S.3       1 <0>        -0.1390
      8 N3         -5.1297   -1.9005    0.7963 N.2       1 <0>        -1.0182
      9 S2         -6.2564   -2.3131   -0.3450 S.o2      1 <0>         2.6393
     10 O1         -6.6079   -1.1136   -1.0209 O.2       1 <0>        -1.0011
     11 O2         -5.7457   -3.4503   -1.0272 O.2       1 <0>        -1.0005
     12 C5         -7.6982   -2.8474    0.5154 C.ar      1 <0>        -0.6296
     13 C6         -7.8435   -4.1813    0.8536 C.ar      1 <0>        -0.0084
     14 C7         -8.9698   -4.6067    1.5269 C.ar      1 <0>        -0.1246
     15 C8         -9.9645   -3.6874    1.8675 C.ar      1 <0>         0.1154
     16 C9         -9.8110   -2.3425    1.5233 C.ar      1 <0>        -0.1716
     17 C10        -8.6771   -1.9303    0.8547 C.ar      1 <0>        -0.0054
     18 N4        -11.0848   -4.1025    2.5350 N.2       1 <0>        -0.4725
     19 C11       -11.5316   -3.4155    3.5489 C.2       1 <0>         0.1998
     20 C12       -12.7357   -3.8617    4.2663 C.ar      1 <0>        -0.0677
     21 C13       -13.3995   -5.0262    3.8660 C.ar      1 <0>        -0.0605
     22 C14       -14.5272   -5.4420    4.5397 C.ar      1 <0>        -0.1393
     23 C15       -15.0076   -4.7079    5.6156 C.ar      1 <0>         0.0990
     24 C16       -14.3516   -3.5464    6.0205 C.ar      1 <0>         0.0729
     25 C17       -13.2168   -3.1258    5.3546 C.ar      1 <0>        -0.0963
     26 O3        -14.8259   -2.8301    7.0747 O.3       1 <0>        -0.4859
     27 O4        -16.1204   -5.1223    6.2754 O.3       1 <0>        -0.4881
     28 H1          1.0039    1.9031    0.0027 H         1 <0>         0.0579
     29 H2         -0.5459    1.8868   -0.8726 H         1 <0>         0.0584
     30 H3         -0.5289    1.8773    0.9072 H         1 <0>         0.0550
     31 H4          0.5123   -0.3556   -0.8948 H         1 <0>         0.0860
     32 H5          0.5293   -0.3651    0.8851 H         1 <0>         0.0772
     33 H6         -7.0735   -4.8910    0.5896 H         1 <0>         0.1450
     34 H7         -9.0823   -5.6481    1.7896 H         1 <0>         0.1353
     35 H8        -10.5765   -1.6264    1.7834 H         1 <0>         0.1293
     36 H9         -8.5550   -0.8899    0.5918 H         1 <0>         0.1424
     37 H10       -11.0177   -2.5187    3.8620 H         1 <0>         0.1159
     38 H11       -13.0284   -5.5989    3.0289 H         1 <0>         0.1449
     39 H12       -15.0389   -6.3412    4.2297 H         1 <0>         0.1380
     40 H13       -12.7050   -2.2288    5.6704 H         1 <0>         0.1417
     41 H14       -14.4604   -3.0983    7.9289 H         1 <0>         0.3877
     42 H15       -15.9399   -5.7180    7.0155 H         1 <0>         0.3896
@<TRIPOS>BOND
     1    1    2 1
     2    1   28 1
     3    1   29 1
     4    1   30 1
     5    2    3 1
     6    2   31 1
     7    2   32 1
     8    3    7 1
     9    3    4 2
    10    4    5 1
    11    5    6 2
    12    6    7 1
    13    6    8 1
    14    8    9 1
    15    9   10 2
    16    9   11 2
    17    9   12 1
    18   12   17 ar
    19   12   13 ar
    20   13   14 ar
    21   13   33 1
    22   14   15 ar
    23   14   34 1
    24   15   16 ar
    25   15   18 1
    26   16   17 ar
    27   16   35 1
    28   17   36 1
    29   18   19 2
    30   19   20 1
    31   19   37 1
    32   20   25 ar
    33   20   21 ar
    34   21   22 ar
    35   21   38 1
    36   22   23 ar
    37   22   39 1
    38   23   24 ar
    39   23   27 1
    40   24   25 ar
    41   24   26 1
    42   25   40 1
    43   26   41 1
    44   27   42 1
@<TRIPOS>MOLECULE
ZINC08819656
   50    53     0     0     0
SMALL
USER_CHARGES
5-[4-[5-(benzo[1,3]dioxol-5-ylmethylene)-4-oxo-2-thioxo-thiazolidin-3-yl]butanoylamino]-2-hydroxy-benzoic acid
@<TRIPOS>ATOM
      1 C1          0.9763    8.3525   -0.5800 C.ar      1 <0>        -0.0767
      2 C2          0.6648    9.5883   -1.1034 C.ar      1 <0>        -0.0978
      3 C3         -0.1824   10.4462   -0.4150 C.ar      1 <0>         0.0625
      4 C4         -0.7280   10.0582    0.8102 C.ar      1 <0>         0.0300
      5 C5         -0.4258    8.8195    1.3393 C.ar      1 <0>        -0.0590
      6 C6          0.4286    7.9538    0.6450 C.ar      1 <0>        -0.0885
      7 C7          0.7535    6.6350    1.2030 C.2       1 <0>         0.0928
      8 C8          1.2806    5.6716    0.4050 C.2       1 <0>        -0.2385
      9 C9          1.8329    4.3500    0.7641 C.2       1 <0>         0.5448
     10 O1          1.8703    3.9648    1.9181 O.2       1 <0>        -0.4486
     11 N1          2.2845    3.6061   -0.2315 N.am      1 <0>        -0.5180
     12 C10         2.2455    4.0387   -1.5083 C.2       1 <0>         0.2683
     13 S1          2.7814    3.2332   -2.9206 S.2       1 <0>        -0.3305
     14 S2          1.4969    5.6539   -1.3694 S.3       1 <0>         0.0711
     15 C11         2.8454    2.2844    0.0596 C.3       1 <0>         0.0833
     16 C12         1.7328    1.2355    0.0077 C.3       1 <0>        -0.1206
     17 C13         2.3186   -0.1448    0.3118 C.3       1 <0>        -0.1295
     18 C14         1.2226   -1.1780    0.2607 C.2       1 <0>         0.5037
     19 O2          0.0850   -0.8432    0.0061 O.2       1 <0>        -0.5032
     20 N2          1.5067   -2.4739    0.4978 N.am      1 <0>        -0.6720
     21 C15         0.4743   -3.4205    0.5439 C.ar      1 <0>         0.1064
     22 C16         0.6962   -4.7124    0.0780 C.ar      1 <0>        -0.1306
     23 C17        -0.3143   -5.6511    0.1189 C.ar      1 <0>        -0.1498
     24 C18        -1.5601   -5.3126    0.6260 C.ar      1 <0>         0.1251
     25 C19        -1.7913   -4.0131    1.0976 C.ar      1 <0>        -0.1250
     26 C20        -0.7615   -3.0693    1.0578 C.ar      1 <0>        -0.0588
     27 C21        -3.1125   -3.6453    1.6380 C.2       1 <0>         0.4889
     28 O3         -4.0045   -4.4696    1.6754 O.co2     1 <0>        -0.6158
     29 O4         -2.5526   -6.2372    0.6657 O.3       1 <0>        -0.4756
     30 O5         -1.5173   11.0706    1.2753 O.3       1 <0>        -0.3034
     31 C22        -1.1258   12.2370    0.5276 C.3       1 <0>         0.2119
     32 O6         -0.6319   11.6994   -0.7132 O.3       1 <0>        -0.3028
     33 H1          1.6394    7.6901   -1.1165 H         1 <0>         0.1481
     34 H2          1.0850    9.8927   -2.0506 H         1 <0>         0.1475
     35 H3         -0.8471    8.5186    2.2871 H         1 <0>         0.1498
     36 H4          0.5731    6.4315    2.2482 H         1 <0>         0.1688
     37 H5          3.2929    2.2906    1.0535 H         1 <0>         0.1065
     38 H6          3.6079    2.0422   -0.6807 H         1 <0>         0.1146
     39 H7          1.2853    1.2294   -0.9862 H         1 <0>         0.0849
     40 H8          0.9703    1.4777    0.7480 H         1 <0>         0.0815
     41 H9          3.0811   -0.3870   -0.4285 H         1 <0>         0.1012
     42 H10         2.7661   -0.1387    1.3057 H         1 <0>         0.0999
     43 H11         2.4257   -2.7515    0.6367 H         1 <0>         0.4053
     44 H12         1.6642   -4.9820   -0.3179 H         1 <0>         0.1215
     45 H13        -0.1347   -6.6522   -0.2446 H         1 <0>         0.1263
     46 H14        -0.9309   -2.0674    1.4235 H         1 <0>         0.1443
     47 H15        -2.5786   -6.7513    1.4843 H         1 <0>         0.3834
     48 H16        -0.3382   12.7801    1.0499 H         1 <0>         0.0895
     49 H17        -1.9849   12.8838    0.3496 H         1 <0>         0.1367
     50 O7         -3.3311   -2.3950    2.0906 O.co2     1 <0>        -0.7534
@<TRIPOS>BOND
     1    1    6 ar
     2    1    2 ar
     3    1   33 1
     4    2    3 ar
     5    2   34 1
     6    3   32 1
     7    3    4 ar
     8    4    5 ar
     9    4   30 1
    10    5    6 ar
    11    5   35 1
    12    6    7 1
    13    7    8 2
    14    7   36 1
    15    8   14 1
    16    8    9 1
    17    9   10 2
    18    9   11 am
    19   11   12 1
    20   11   15 1
    21   12   13 2
    22   12   14 1
    23   15   16 1
    24   15   37 1
    25   15   38 1
    26   16   17 1
    27   16   39 1
    28   16   40 1
    29   17   18 1
    30   17   41 1
    31   17   42 1
    32   18   19 2
    33   18   20 am
    34   20   21 1
    35   20   43 1
    36   21   26 ar
    37   21   22 ar
    38   22   23 ar
    39   22   44 1
    40   23   24 ar
    41   23   45 1
    42   24   25 ar
    43   24   29 1
    44   25   26 ar
    45   25   27 1
    46   26   46 1
    47   27   28 2
    48   27   50 1
    49   29   47 1
    50   30   31 1
    51   31   32 1
    52   31   48 1
    53   31   49 1
@<TRIPOS>MOLECULE
ZINC13262769
   45    47     0     0     0
SMALL
USER_CHARGES
2-[[3-[(3-cyanophenyl)sulfonylamino]phenyl]sulfonylamino]benzoic acid
@<TRIPOS>ATOM
      1 C1         -2.1080    3.5339   -8.6905 C.ar      1 <0>        -0.1568
      2 C2         -3.2603    4.1403   -8.2148 C.ar      1 <0>        -0.0924
      3 C3         -3.1966    5.3684   -7.5896 C.ar      1 <0>        -0.2010
      4 C4         -1.9739    6.0120   -7.4421 C.ar      1 <0>         0.1845
      5 C5         -0.8050    5.4006   -7.9228 C.ar      1 <0>        -0.1363
      6 C6         -0.8861    4.1534   -8.5491 C.ar      1 <0>        -0.0546
      7 C7          0.4985    6.0687   -7.7677 C.2       1 <0>         0.4941
      8 O1          0.5646    7.1526   -7.2223 O.co2     1 <0>        -0.6272
      9 N1         -1.9078    7.2501   -6.8177 N.pl3     1 <0>        -1.0252
     10 S1         -2.9228    7.5963   -5.5558 S.o2      1 <0>         2.6855
     11 O2         -4.2427    7.3351   -6.0128 O.2       1 <0>        -0.9563
     12 O3         -2.5278    8.8655   -5.0533 O.2       1 <0>        -0.9468
     13 C8         -2.5896    6.4247   -4.2827 C.ar      1 <0>        -0.6634
     14 C9         -3.2837    5.2289   -4.2454 C.ar      1 <0>        -0.0027
     15 C10        -3.0254    4.3068   -3.2482 C.ar      1 <0>        -0.1344
     16 C11        -2.0689    4.5749   -2.2884 C.ar      1 <0>        -0.0563
     17 C12        -1.3735    5.7768   -2.3200 C.ar      1 <0>         0.0935
     18 C13        -1.6356    6.7011   -3.3235 C.ar      1 <0>         0.0064
     19 N2         -0.4087    6.0530   -1.3485 N.pl3     1 <0>        -1.0556
     20 S2         -0.7254    7.1600   -0.1583 S.o2      1 <0>         2.6839
     21 O4         -1.2384    8.3165   -0.8054 O.2       1 <0>        -0.9335
     22 O5          0.4247    7.2005    0.6752 O.2       1 <0>        -0.9449
     23 C14        -2.0360    6.5092    0.8232 C.ar      1 <0>        -0.6773
     24 C15        -1.7551    5.6319    1.8559 C.ar      1 <0>         0.0097
     25 C16        -2.7780    5.1158    2.6312 C.ar      1 <0>        -0.1380
     26 C17        -4.0866    5.4727    2.3789 C.ar      1 <0>        -0.0162
     27 C18        -4.3777    6.3528    1.3349 C.ar      1 <0>        -0.0427
     28 C19        -3.3397    6.8748    0.5602 C.ar      1 <0>         0.0302
     29 C20        -5.7342    6.7230    1.0634 C.1       1 <0>         0.2473
     30 N3         -6.8102    7.0167    0.8481 N.1       1 <0>        -0.3984
     31 H1         -2.1688    2.5702   -9.1743 H         1 <0>         0.1182
     32 H2         -4.2136    3.6461   -8.3306 H         1 <0>         0.1215
     33 H3         -4.0985    5.8318   -7.2179 H         1 <0>         0.1558
     34 H4          0.0083    3.6761   -8.9214 H         1 <0>         0.1337
     35 H5         -1.2671    7.9125   -7.1205 H         1 <0>         0.4420
     36 H6         -4.0289    5.0149   -4.9973 H         1 <0>         0.1467
     37 H7         -3.5691    3.3740   -3.2220 H         1 <0>         0.1397
     38 H8         -1.8644    3.8523   -1.5122 H         1 <0>         0.1372
     39 H9         -1.0939    7.6350   -3.3531 H         1 <0>         0.1556
     40 H10         0.4468    5.5963   -1.3709 H         1 <0>         0.4300
     41 H11        -0.7325    5.3492    2.0578 H         1 <0>         0.1491
     42 H12        -2.5517    4.4316    3.4357 H         1 <0>         0.1465
     43 H13        -4.8842    5.0688    2.9847 H         1 <0>         0.1429
     44 H14        -3.5576    7.5593   -0.2463 H         1 <0>         0.1537
     45 O6          1.6178    5.4779   -8.2307 O.co2     1 <0>        -0.7479
@<TRIPOS>BOND
     1    1    6 ar
     2    1    2 ar
     3    1   31 1
     4    2    3 ar
     5    2   32 1
     6    3    4 ar
     7    3   33 1
     8    4    5 ar
     9    4    9 1
    10    5    6 ar
    11    5    7 1
    12    6   34 1
    13    7    8 2
    14    7   45 1
    15    9   10 1
    16    9   35 1
    17   10   11 2
    18   10   12 2
    19   10   13 1
    20   13   18 ar
    21   13   14 ar
    22   14   15 ar
    23   14   36 1
    24   15   16 ar
    25   15   37 1
    26   16   17 ar
    27   16   38 1
    28   17   18 ar
    29   17   19 1
    30   18   39 1
    31   19   20 1
    32   19   40 1
    33   20   21 2
    34   20   22 2
    35   20   23 1
    36   23   28 ar
    37   23   24 ar
    38   24   25 ar
    39   24   41 1
    40   25   26 ar
    41   25   42 1
    42   26   27 ar
    43   26   43 1
    44   27   28 ar
    45   27   29 1
    46   28   44 1
    47   29   30 3
@<TRIPOS>MOLECULE
ZINC17211957
   46    49     0     0     0
SMALL
USER_CHARGES

@<TRIPOS>ATOM
      1 C1         -0.0069    3.2083    0.0240 C.ar      1 <0>        -0.1149
      2 C2          1.3740    3.2557    0.0659 C.ar      1 <0>        -0.0230
      3 C3          2.1108    2.0969   -0.0895 C.ar      1 <0>        -0.0612
      4 C4          1.4665    0.8882   -0.2867 C.ar      1 <0>        -0.0186
      5 C5          0.0849    0.8400   -0.3282 C.ar      1 <0>        -0.1114
      6 C6         -0.6522    2.0005   -0.1730 C.ar      1 <0>        -0.0192
      7 Cl1        -2.3864    1.9410   -0.2250 Cl        1 <0>        -0.0652
      8 Cl2         2.3923   -0.5673   -0.4824 Cl        1 <0>        -0.0631
      9 C7          3.6163    2.1496   -0.0447 C.3       1 <0>         0.1716
     10 H1          3.9965    1.2561    0.4503 H         1 <0>         0.0631
     11 C8          4.1586    2.2152   -1.4492 C.2       1 <0>         0.1176
     12 N1          4.9516    1.2822   -1.8836 N.2       1 <0>        -0.1234
     13 N2          5.2590    0.1871   -1.0656 N.am      1 <0>        -0.5866
     14 C9          5.9950   -0.8318   -1.5520 C.2       1 <0>         0.5680
     15 O1          6.4709   -0.7592   -2.6680 O.2       1 <0>        -0.4695
     16 C10         6.2238   -2.0397   -0.7268 C.ar      1 <0>        -0.0764
     17 C11         5.5983   -2.1911    0.5149 C.ar      1 <0>        -0.1472
     18 C12         5.8402   -3.3341    1.2517 C.ar      1 <0>         0.0995
     19 N3          6.6470   -4.2732    0.7991 N.ar      1 <0>        -0.4702
     20 C13         7.2565   -4.1705   -0.3653 C.ar      1 <0>         0.0991
     21 C14         7.0671   -3.0638   -1.1699 C.ar      1 <0>        -0.1124
     22 C15         3.7900    3.3360   -2.3287 C.ar      1 <0>         0.0739
     23 C16         4.2973    3.3913   -3.6508 C.ar      1 <0>         0.4043
     24 N4          3.9750    4.3886   -4.4459 N.ar      1 <0>        -0.5607
     25 C17         3.1616    5.3584   -4.0041 C.ar      1 <0>         0.1843
     26 C18         2.8039    6.4317   -4.8353 C.ar      1 <0>        -0.1180
     27 C19         1.9751    7.4058   -4.3640 C.ar      1 <0>         0.0033
     28 C20         1.4744    7.3534   -3.0635 C.ar      1 <0>        -0.1744
     29 C21         1.7999    6.3280   -2.2300 C.ar      1 <0>        -0.0227
     30 C22         2.6526    5.3048   -2.6819 C.ar      1 <0>        -0.0339
     31 N5          2.9821    4.2846   -1.8831 N.ar      1 <0>        -0.3780
     32 Cl3         1.5372    8.7306   -5.3970 Cl        1 <0>        -0.0886
     33 O2          5.1193    2.4118   -4.0982 O.3       1 <0>        -0.6169
     34 O3          4.0309    3.3089    0.6806 O.3       1 <0>        -0.5315
     35 H2         -0.5823    4.1136    0.1496 H         1 <0>         0.1404
     36 H3          1.8773    4.1988    0.2198 H         1 <0>         0.1632
     37 H4         -0.4184   -0.1031   -0.4821 H         1 <0>         0.1425
     38 H5          4.9420    0.1622   -0.1492 H         1 <0>         0.3715
     39 H6          4.9363   -1.4256    0.8921 H         1 <0>         0.1324
     40 H7          5.3621   -3.4600    2.2119 H         1 <0>         0.1633
     41 H8          7.9092   -4.9645   -0.6967 H         1 <0>         0.1659
     42 H9          7.5660   -2.9884   -2.1247 H         1 <0>         0.1524
     43 H10         3.1844    6.4855   -5.8446 H         1 <0>         0.1335
     44 H11         0.8197    8.1374   -2.7129 H         1 <0>         0.1261
     45 H12         1.4051    6.3003   -1.2251 H         1 <0>         0.1283
     46 H13         4.9904    3.4074    0.7496 H         1 <0>         0.3829
@<TRIPOS>BOND
     1    1    6 ar
     2    1    2 ar
     3    1   35 1
     4    2    3 ar
     5    2   36 1
     6    3    4 ar
     7    3    9 1
     8    4    5 ar
     9    4    8 1
    10    5    6 ar
    11    5   37 1
    12    6    7 1
    13    9   10 1
    14    9   11 1
    15    9   34 1
    16   11   12 2
    17   11   22 1
    18   12   13 1
    19   13   14 am
    20   13   38 1
    21   14   15 2
    22   14   16 1
    23   16   21 ar
    24   16   17 ar
    25   17   18 ar
    26   17   39 1
    27   18   19 ar
    28   18   40 1
    29   19   20 ar
    30   20   21 ar
    31   20   41 1
    32   21   42 1
    33   22   31 ar
    34   22   23 ar
    35   23   24 ar
    36   23   33 1
    37   24   25 ar
    38   25   30 ar
    39   25   26 ar
    40   26   27 ar
    41   26   43 1
    42   27   28 ar
    43   27   32 1
    44   28   29 ar
    45   28   44 1
    46   29   30 ar
    47   29   45 1
    48   30   31 ar
    49   34   46 1
@<TRIPOS>MOLECULE
ZINC39722412
   47    50     0     0     0
SMALL
USER_CHARGES

@<TRIPOS>ATOM
      1 C1         -0.0157    1.3058    0.0092 C.2       1 <0>        -0.1738
      2 C2          0.0021   -0.0041    0.0020 C.2       1 <0>        -0.1740
      3 C3          1.3172   -0.7397   -0.0145 C.3       1 <0>         0.1390
      4 N1          1.3674   -1.6756    1.1115 N.am      1 <0>        -0.6104
      5 C4          1.9032   -1.2255    2.3963 C.3       1 <0>         0.3854
      6 H1          1.7587   -0.1492    2.4904 H         1 <0>         0.1488
      7 N2          1.2174   -1.9060    3.5008 N.pl3     1 <0>        -0.7317
      8 C5          0.9741   -3.2712    3.3976 C.ar      1 <0>         0.2378
      9 C6          0.8992   -4.0842    4.5152 C.ar      1 <0>        -0.1739
     10 C7          0.6388   -5.4341    4.3634 C.ar      1 <0>         0.0320
     11 C8          0.4512   -5.9778    3.1006 C.ar      1 <0>        -0.1615
     12 C9          0.5290   -5.1819    1.9774 C.ar      1 <0>        -0.0071
     13 C10         0.7985   -3.8217    2.1159 C.ar      1 <0>        -0.2066
     14 C11         0.9141   -2.9343    0.9466 C.2       1 <0>         0.5666
     15 O1          0.6067   -3.3355   -0.1594 O.2       1 <0>        -0.5191
     16 Cl1         0.5455   -6.4560    5.7636 Cl        1 <0>        -0.0543
     17 S1          3.6760   -1.6021    2.4727 S.3       1 <0>        -0.1315
     18 C12         3.7496   -3.4058    2.2937 C.3       1 <0>        -0.0565
     19 C13         5.1867   -3.8571    2.3408 C.2       1 <0>         0.3770
     20 N3          5.4497   -5.1841    2.2170 N.am      1 <0>        -0.6501
     21 H2          4.7179   -5.8104    2.1020 H         1 <0>         0.4116
     22 C14         6.7233   -5.6404    2.2522 C.2       1 <0>         0.5569
     23 O2          6.9732   -6.8263    2.1422 O.2       1 <0>        -0.5194
     24 C15         7.7955   -4.6454    2.4285 C.ar      1 <0>        -0.1969
     25 C16         9.1385   -5.0144    2.4771 C.ar      1 <0>        -0.0661
     26 C17        10.1008   -4.0591    2.6415 C.ar      1 <0>        -0.0895
     27 C18         9.7502   -2.7080    2.7622 C.ar      1 <0>        -0.0901
     28 C19         8.4158   -2.3194    2.7167 C.ar      1 <0>        -0.0630
     29 C20         7.4246   -3.2883    2.5484 C.ar      1 <0>         0.1251
     30 N4          6.1101   -2.9572    2.4923 N.2       1 <0>        -0.4759
     31 C21        10.8060   -1.6888    2.9395 C.2       1 <0>         0.5197
     32 O3         11.9804   -2.0260    2.9805 O.co2     1 <0>        -0.6777
     33 O4         10.5047   -0.5087    3.0453 O.co2     1 <0>        -0.6757
     34 H3          0.9122    1.8585    0.0033 H         1 <0>         0.1023
     35 H4         -0.9582    1.8330    0.0166 H         1 <0>         0.1003
     36 H5         -0.9258   -0.5567    0.0079 H         1 <0>         0.1084
     37 H6          1.4134   -1.2911   -0.9498 H         1 <0>         0.1043
     38 H7          2.1349   -0.0241    0.0711 H         1 <0>         0.0951
     39 H8          0.9388   -1.4127    4.2881 H         1 <0>         0.4209
     40 H9          1.0437   -3.6668    5.5007 H         1 <0>         0.1458
     41 H10         0.2430   -7.0325    2.9967 H         1 <0>         0.1425
     42 H11         0.3824   -5.6098    0.9967 H         1 <0>         0.1487
     43 H12         3.1948   -3.8745    3.1065 H         1 <0>         0.1115
     44 H13         3.3092   -3.6944    1.3394 H         1 <0>         0.1061
     45 H14         9.4178   -6.0536    2.3853 H         1 <0>         0.1324
     46 H15        11.1408   -4.3478    2.6792 H         1 <0>         0.1398
     47 H16         8.1485   -1.2772    2.8107 H         1 <0>         0.1468
@<TRIPOS>BOND
     1    1    2 2
     2    1   34 1
     3    1   35 1
     4    2    3 1
     5    2   36 1
     6    3    4 1
     7    3   37 1
     8    3   38 1
     9    4   14 am
    10    4    5 1
    11    5    6 1
    12    5    7 1
    13    5   17 1
    14    7    8 1
    15    7   39 1
    16    8   13 ar
    17    8    9 ar
    18    9   10 ar
    19    9   40 1
    20   10   11 ar
    21   10   16 1
    22   11   12 ar
    23   11   41 1
    24   12   13 ar
    25   12   42 1
    26   13   14 1
    27   14   15 2
    28   17   18 1
    29   18   19 1
    30   18   43 1
    31   18   44 1
    32   19   30 2
    33   19   20 1
    34   20   21 1
    35   20   22 am
    36   22   23 2
    37   22   24 1
    38   24   29 ar
    39   24   25 ar
    40   25   26 ar
    41   25   45 1
    42   26   27 ar
    43   26   46 1
    44   27   28 ar
    45   27   31 1
    46   28   29 ar
    47   28   47 1
    48   29   30 1
    49   31   32 2
    50   31   33 1
@<TRIPOS>MOLECULE
ZINC18196377
   55    60     0     0     0
SMALL
USER_CHARGES

@<TRIPOS>ATOM
      1 C1         -2.7462   -6.6612   -4.5506 C.ar      1 <0>        -0.1496
      2 C2         -2.7441   -5.2869   -4.7034 C.ar      1 <0>        -0.0912
      3 C3         -1.7238   -4.5316   -4.1592 C.ar      1 <0>        -0.1703
      4 C4         -0.6994   -5.1540   -3.4575 C.ar      1 <0>         0.1820
      5 C5         -0.7048   -6.5345   -3.3055 C.ar      1 <0>        -0.1421
      6 C6         -1.7277   -7.2840   -3.8526 C.ar      1 <0>        -0.0820
      7 N1          0.3354   -4.3922   -2.9057 N.am      1 <0>        -0.3565
      8 C7          1.3892   -4.8712   -2.2085 C.2       1 <0>         0.5506
      9 O1          1.6058   -6.0425   -1.9496 O.2       1 <0>        -0.4822
     10 C8          2.1857   -3.7872   -1.8384 C.2       1 <0>        -0.3179
     11 C9          1.5983   -2.6437   -2.3191 C.2       1 <0>         0.4061
     12 N2          0.4647   -2.9960   -2.9842 N.pl3     1 <0>        -0.4998
     13 H1         -0.1467   -2.3901   -3.4313 H         1 <0>         0.4373
     14 N3          2.1556   -1.4064   -2.1036 N.pl3     1 <0>        -0.6243
     15 C10         3.1429   -1.2819   -1.1536 C.2       1 <0>         0.1752
     16 C11         3.7796   -2.3487   -0.6293 C.2       1 <0>        -0.2052
     17 C12         3.4708   -3.7669   -1.0593 C.3       1 <0>         0.0963
     18 H2          3.3710   -4.4000   -0.1776 H         1 <0>         0.1239
     19 C13         4.5908   -4.2845   -1.9246 C.ar      1 <0>        -0.0447
     20 C14         4.9939   -3.5707   -3.0340 C.ar      1 <0>        -0.1214
     21 C15         6.0219   -4.0444   -3.8296 C.ar      1 <0>        -0.1487
     22 C16         6.6531   -5.2365   -3.5193 C.ar      1 <0>        -0.1331
     23 C17         6.2605   -5.9610   -2.4137 C.ar      1 <0>        -0.1080
     24 C18         5.2271   -5.4856   -1.6020 C.ar      1 <0>        -0.0847
     25 C19         4.8061   -6.2515   -0.4134 C.2       1 <0>         0.5243
     26 O2          4.4423   -7.4131   -0.5317 O.co2     1 <0>        -0.6877
     27 O3          4.8208   -5.7248    0.6902 O.co2     1 <0>        -0.6628
     28 C20         4.7713   -2.1863    0.3574 C.2       1 <0>         0.3649
     29 O4          5.3359   -3.1678    0.7982 O.2       1 <0>        -0.3766
     30 C21         5.1481   -0.8275    0.8776 C.3       1 <0>        -0.1584
     31 C22         3.9399    0.1063    0.7490 C.3       1 <0>         0.0065
     32 H3          3.1255   -0.2582    1.3751 H         1 <0>         0.1066
     33 C23         3.4975    0.1209   -0.7152 C.3       1 <0>        -0.0791
     34 C24         4.3260    1.4985    1.1776 C.2       1 <0>        -0.1275
     35 C25         3.8163    2.2552    2.1801 C.2       1 <0>        -0.1576
     36 C26         4.3320    3.5197    2.3942 C.2       1 <0>        -0.1540
     37 C27         5.3322    3.9656    1.5954 C.2       1 <0>        -0.1797
     38 S1          5.5789    2.5760    0.5019 S.3       1 <0>         0.0392
     39 H4         -3.5474   -7.2492   -4.9736 H         1 <0>         0.1233
     40 H5         -3.5409   -4.8036   -5.2491 H         1 <0>         0.1248
     41 H6         -1.7224   -3.4584   -4.2795 H         1 <0>         0.1156
     42 H7          0.0905   -7.0215   -2.7608 H         1 <0>         0.1627
     43 H8         -1.7325   -8.3575   -3.7348 H         1 <0>         0.1320
     44 H9          1.8588   -0.6354   -2.6119 H         1 <0>         0.4140
     45 H10         4.5056   -2.6399   -3.2823 H         1 <0>         0.1001
     46 H11         6.3331   -3.4815   -4.6972 H         1 <0>         0.1047
     47 H12         7.4549   -5.6002   -4.1449 H         1 <0>         0.1080
     48 H13         6.7537   -6.8912   -2.1729 H         1 <0>         0.1137
     49 H14         5.4391   -0.9056    1.9252 H         1 <0>         0.1001
     50 H15         5.9795   -0.4311    0.2947 H         1 <0>         0.0977
     51 H16         4.3096    0.5004   -1.3353 H         1 <0>         0.0968
     52 H17         2.6261    0.7664   -0.8247 H         1 <0>         0.0895
     53 H18         3.0189    1.8760    2.8020 H         1 <0>         0.1340
     54 H19         3.9436    4.1432    3.1859 H         1 <0>         0.1318
     55 H20         5.8487    4.9138    1.6173 H         1 <0>         0.1833
@<TRIPOS>BOND
     1    1    6 ar
     2    1    2 ar
     3    1   39 1
     4    2    3 ar
     5    2   40 1
     6    3    4 ar
     7    3   41 1
     8    4    5 ar
     9    4    7 1
    10    5    6 ar
    11    5   42 1
    12    6   43 1
    13    7   12 1
    14    7    8 am
    15    8    9 2
    16    8   10 1
    17   10   17 1
    18   10   11 2
    19   11   12 1
    20   11   14 1
    21   12   13 1
    22   14   15 1
    23   14   44 1
    24   15   33 1
    25   15   16 2
    26   16   17 1
    27   16   28 1
    28   17   18 1
    29   17   19 1
    30   19   24 ar
    31   19   20 ar
    32   20   21 ar
    33   20   45 1
    34   21   22 ar
    35   21   46 1
    36   22   23 ar
    37   22   47 1
    38   23   24 ar
    39   23   48 1
    40   24   25 1
    41   25   26 2
    42   25   27 1
    43   28   29 2
    44   28   30 1
    45   30   31 1
    46   30   49 1
    47   30   50 1
    48   31   32 1
    49   31   33 1
    50   31   34 1
    51   33   51 1
    52   33   52 1
    53   34   38 1
    54   34   35 2
    55   35   36 1
    56   35   53 1
    57   36   37 2
    58   36   54 1
    59   37   38 1
    60   37   55 1
@<TRIPOS>MOLECULE
ZINC02216000
   52    55     0     0     0
SMALL
USER_CHARGES

@<TRIPOS>ATOM
      1 C1         -0.0173    1.4248    0.0099 C.3       1 <0>         0.0237
      2 O1          0.0021   -0.0041    0.0020 O.3       1 <0>        -0.3077
      3 C2         -1.2011   -0.6379    0.0101 C.ar      1 <0>         0.1055
      4 C3         -2.3743    0.0994    0.0195 C.ar      1 <0>        -0.1722
      5 C4         -3.5965   -0.5465    0.0272 C.ar      1 <0>        -0.0413
      6 C5         -3.6519   -1.9279    0.0261 C.ar      1 <0>        -0.1266
      7 C6         -2.4852   -2.6694    0.0172 C.ar      1 <0>        -0.1079
      8 C7         -1.2569   -2.0283    0.0032 C.ar      1 <0>         0.0729
      9 O2         -0.1083   -2.7563   -0.0116 O.3       1 <0>        -0.4865
     10 C8         -4.8714    0.2570    0.0374 C.3       1 <0>         0.0886
     11 H1         -4.6246    1.3187    0.0372 H         1 <0>         0.0985
     12 C9         -5.6651   -0.0639   -1.1948 C.2       1 <0>        -0.0883
     13 C10        -6.7424   -0.8921   -1.1396 C.2       1 <0>         0.1486
     14 N1         -7.1261   -1.4459    0.0597 N.pl3     1 <0>        -0.6391
     15 C11        -6.7179   -0.8941    1.2436 C.2       1 <0>         0.2198
     16 C12        -5.6514   -0.0690    1.2860 C.2       1 <0>        -0.2640
     17 C13        -5.2362    0.5137    2.4959 C.2       1 <0>         0.4026
     18 O3         -4.2676    1.2475    2.5024 O.2       1 <0>        -0.4630
     19 C14        -5.9674    0.2460    3.7827 C.3       1 <0>        -0.1687
     20 C15        -7.4355   -0.0599    3.4681 C.3       1 <0>        -0.1109
     21 C16        -7.4868   -1.2362    2.4962 C.3       1 <0>        -0.0974
     22 S1         -7.6484   -1.2559   -2.6064 S.3       1 <0>         0.0374
     23 C17        -8.9617   -2.3742   -2.0450 C.3       1 <0>        -0.1717
     24 C18        -9.8219   -2.7678   -3.2181 C.2       1 <0>         0.5290
     25 O4         -9.5734   -2.3363   -4.3241 O.2       1 <0>        -0.4410
     26 N2        -10.8673   -3.5992   -3.0383 N.am      1 <0>        -0.6167
     27 C19       -11.6607   -3.9623   -4.1204 C.2       1 <0>         0.2625
     28 N3        -11.5403   -3.6016   -5.3797 N.2       1 <0>        -0.5181
     29 C20       -12.3832   -4.0370   -6.2977 C.2       1 <0>         0.0617
     30 C21       -13.3712   -4.8675   -5.8827 C.2       1 <0>        -0.2367
     31 S2        -13.0041   -4.9759   -4.1388 S.3       1 <0>         0.1192
     32 C22        -5.2824    0.5115   -2.4490 C.1       1 <0>         0.2508
     33 N4         -4.9788    0.9680   -3.4440 N.1       1 <0>        -0.3970
     34 H2          1.0053    1.8021    0.0021 H         1 <0>         0.1017
     35 H3         -0.5445    1.7859   -0.8732 H         1 <0>         0.0555
     36 H4         -0.5275    1.7763    0.9067 H         1 <0>         0.0588
     37 H5         -2.3338    1.1787    0.0211 H         1 <0>         0.1336
     38 H6         -4.6086   -2.4288    0.0325 H         1 <0>         0.1194
     39 H7         -2.5312   -3.7485    0.0167 H         1 <0>         0.1344
     40 H8          0.2323   -2.9716    0.8674 H         1 <0>         0.3854
     41 H9         -7.6912   -2.2342    0.0663 H         1 <0>         0.4156
     42 H10        -5.5168   -0.6087    4.2873 H         1 <0>         0.1019
     43 H11        -5.9075    1.1241    4.4257 H         1 <0>         0.0988
     44 H12        -7.9603   -0.3209    4.3871 H         1 <0>         0.0889
     45 H13        -7.9019    0.8132    3.0117 H         1 <0>         0.0768
     46 H14        -8.5243   -1.4489    2.2385 H         1 <0>         0.0912
     47 H15        -7.0428   -2.1137    2.9663 H         1 <0>         0.1027
     48 H16        -8.5159   -3.2666   -1.6057 H         1 <0>         0.1288
     49 H17        -9.5746   -1.8691   -1.2984 H         1 <0>         0.1312
     50 H18       -11.0660   -3.9443   -2.1538 H         1 <0>         0.4283
     51 H19       -12.2901   -3.7443   -7.3331 H         1 <0>         0.1789
     52 H20       -14.1604   -5.3370   -6.4510 H         1 <0>         0.2022
@<TRIPOS>BOND
     1    1    2 1
     2    1   34 1
     3    1   35 1
     4    1   36 1
     5    2    3 1
     6    3    8 ar
     7    3    4 ar
     8    4    5 ar
     9    4   37 1
    10    5    6 ar
    11    5   10 1
    12    6    7 ar
    13    6   38 1
    14    7    8 ar
    15    7   39 1
    16    8    9 1
    17    9   40 1
    18   10   11 1
    19   10   16 1
    20   10   12 1
    21   12   13 2
    22   12   32 1
    23   13   14 1
    24   13   22 1
    25   14   15 1
    26   14   41 1
    27   15   21 1
    28   15   16 2
    29   16   17 1
    30   17   18 2
    31   17   19 1
    32   19   20 1
    33   19   42 1
    34   19   43 1
    35   20   21 1
    36   20   44 1
    37   20   45 1
    38   21   46 1
    39   21   47 1
    40   22   23 1
    41   23   24 1
    42   23   48 1
    43   23   49 1
    44   24   25 2
    45   24   26 am
    46   26   27 1
    47   26   50 1
    48   27   31 1
    49   27   28 2
    50   28   29 1
    51   29   30 2
    52   29   51 1
    53   30   31 1
    54   30   52 1
    55   32   33 3
@<TRIPOS>MOLECULE
ZINC13045418
   47    49     0     0     0
SMALL
USER_CHARGES
2-[2-[(2-bromo-4-methyl-phenyl)amino]-2-oxo-ethyl]sulfanyl-3-(2-hydroxyethyl)-4-oxo-quinazoline-7-carboxylic acid
@<TRIPOS>ATOM
      1 C1          6.5592   10.6281    0.8254 C.3       1 <0>        -0.1125
      2 C2          5.4246    9.7212    1.2268 C.ar      1 <0>        -0.0967
      3 C3          4.7254    9.0217    0.2601 C.ar      1 <0>        -0.0865
      4 C4          3.6846    8.1900    0.6241 C.ar      1 <0>        -0.1107
      5 C5          3.3404    8.0558    1.9627 C.ar      1 <0>         0.1714
      6 C6          4.0410    8.7637    2.9312 C.ar      1 <0>        -0.1165
      7 C7          5.0846    9.5906    2.5605 C.ar      1 <0>        -0.0741
      8 Br1         3.5718    8.5911    4.7549 Br        1 <0>        -0.0388
      9 N1          2.2862    7.2137    2.3348 N.am      1 <0>        -0.6669
     10 C8          2.0606    6.0742    1.6514 C.2       1 <0>         0.5407
     11 O1          2.7183    5.8183    0.6650 O.2       1 <0>        -0.5044
     12 C9          0.9911    5.1180    2.1129 C.3       1 <0>        -0.1614
     13 S1          0.9323    3.6942    0.9969 S.3       1 <0>         0.1018
     14 C10        -0.3638    2.7683    1.7502 C.2       1 <0>         0.3467
     15 N2         -0.9381    3.2557    2.8222 N.2       1 <0>        -0.5219
     16 C11        -1.9360    2.5944    3.4545 C.ar      1 <0>         0.1437
     17 C12        -2.5438    3.1139    4.6010 C.ar      1 <0>        -0.0763
     18 C13        -3.5645    2.3997    5.2158 C.ar      1 <0>        -0.0655
     19 C14        -3.9846    1.1692    4.6944 C.ar      1 <0>        -0.0899
     20 C15        -3.3980    0.6517    3.5754 C.ar      1 <0>        -0.0623
     21 C16        -2.3716    1.3516    2.9420 C.ar      1 <0>        -0.1998
     22 C17        -1.7126    0.8311    1.7335 C.2       1 <0>         0.5573
     23 O2         -2.0425   -0.2334    1.2442 O.2       1 <0>        -0.5197
     24 N3         -0.7266    1.5786    1.1864 N.am      1 <0>        -0.5260
     25 C18        -0.0384    1.1051   -0.0171 C.3       1 <0>         0.0920
     26 C19        -0.7699    1.6193   -1.2586 C.3       1 <0>         0.0591
     27 O3         -0.6804    3.0446   -1.3080 O.3       1 <0>        -0.5547
     28 C20        -4.2129    2.9429    6.4297 C.2       1 <0>         0.4879
     29 O4         -3.8523    4.0094    6.8852 O.co2     1 <0>        -0.6217
     30 H1          6.1743   11.6304    0.6378 H         1 <0>         0.0725
     31 H2          7.2955   10.6659    1.6283 H         1 <0>         0.0679
     32 H3          7.0286   10.2438   -0.0802 H         1 <0>         0.0691
     33 H4          4.9933    9.1262   -0.7809 H         1 <0>         0.1328
     34 H5          3.1387    7.6447   -0.1316 H         1 <0>         0.1506
     35 H6          5.6321   10.1388    3.3130 H         1 <0>         0.1360
     36 H7          1.7179    7.4503    3.0845 H         1 <0>         0.4188
     37 H8          0.0254    5.6233    2.1084 H         1 <0>         0.1352
     38 H9          1.2188    4.7784    3.1234 H         1 <0>         0.1335
     39 H10        -2.2228    4.0626    5.0052 H         1 <0>         0.1439
     40 H11        -4.7793    0.6245    5.1824 H         1 <0>         0.1425
     41 H12        -3.7286   -0.2979    3.1812 H         1 <0>         0.1328
     42 H13        -0.0299    0.0152   -0.0257 H         1 <0>         0.1161
     43 H14         0.9864    1.4764   -0.0194 H         1 <0>         0.1020
     44 H15        -0.3116    1.1952   -2.1520 H         1 <0>         0.0657
     45 H16        -1.8177    1.3225   -1.2119 H         1 <0>         0.0532
     46 H17        -1.1234    3.4403   -2.0711 H         1 <0>         0.3775
     47 O5         -5.2029    2.2545    7.0296 O.co2     1 <0>        -0.7442
@<TRIPOS>BOND
     1    1    2 1
     2    1   30 1
     3    1   31 1
     4    1   32 1
     5    2    7 ar
     6    2    3 ar
     7    3    4 ar
     8    3   33 1
     9    4    5 ar
    10    4   34 1
    11    5    6 ar
    12    5    9 1
    13    6    7 ar
    14    6    8 1
    15    7   35 1
    16    9   10 am
    17    9   36 1
    18   10   11 2
    19   10   12 1
    20   12   13 1
    21   12   37 1
    22   12   38 1
    23   13   14 1
    24   14   24 1
    25   14   15 2
    26   15   16 1
    27   16   21 ar
    28   16   17 ar
    29   17   18 ar
    30   17   39 1
    31   18   19 ar
    32   18   28 1
    33   19   20 ar
    34   19   40 1
    35   20   21 ar
    36   20   41 1
    37   21   22 1
    38   22   23 2
    39   22   24 am
    40   24   25 1
    41   25   26 1
    42   25   42 1
    43   25   43 1
    44   26   27 1
    45   26   44 1
    46   26   45 1
    47   27   46 1
    48   28   29 2
    49   28   47 1
@<TRIPOS>MOLECULE
ZINC13364939
   60    62     0     0     0
SMALL
USER_CHARGES
3-allyl-2-[2-[[(1R,2R,3R)-2,3-dimethylcyclohexyl]carbamoylamino]-2-oxo-ethyl]sulfanyl-4-oxo-quinazoline-7-carboxylic acid
@<TRIPOS>ATOM
      1 C1        -11.3748   -8.0031   -1.4214 C.3       1 <0>        -0.1582
      2 C2        -10.2051   -8.5535   -0.6029 C.3       1 <0>        -0.0815
      3 H1         -9.8615   -9.4891   -1.0441 H         1 <0>         0.0750
      4 C3        -10.6628   -8.8055    0.8351 C.3       1 <0>        -0.1174
      5 C4        -11.1452   -7.4922    1.4543 C.3       1 <0>        -0.1188
      6 C5        -10.0003   -6.4773    1.4539 C.3       1 <0>        -0.1318
      7 C6         -9.5426   -6.2253    0.0159 C.3       1 <0>         0.1647
      8 H2        -10.3759   -5.8332   -0.5672 H         1 <0>         0.0948
      9 C7         -9.0602   -7.5386   -0.6033 C.3       1 <0>        -0.0933
     10 H3         -8.2269   -7.9308   -0.0202 H         1 <0>         0.0767
     11 C8         -8.6025   -7.2867   -2.0413 C.3       1 <0>        -0.1510
     12 N1         -8.4463   -5.2536    0.0155 N.am      1 <0>        -0.7320
     13 C9         -8.7162   -3.9331    0.0241 C.2       1 <0>         0.6969
     14 O1         -9.8691   -3.5486    0.0320 O.2       1 <0>        -0.5277
     15 N2         -7.7076   -3.0391    0.0237 N.am      1 <0>        -0.6864
     16 C10        -7.9775   -1.7187    0.0323 C.2       1 <0>         0.5398
     17 O2         -9.1275   -1.3351    0.0402 O.2       1 <0>        -0.4534
     18 C11        -6.8497   -0.7191    0.0319 C.3       1 <0>        -0.1512
     19 S1         -7.5302    0.9581    0.0444 S.3       1 <0>         0.0656
     20 C12        -6.0372    1.8940    0.0418 C.2       1 <0>         0.3372
     21 N3         -4.8963    1.2499    0.0325 N.2       1 <0>        -0.5144
     22 C13        -3.7121    1.9060    0.0300 C.ar      1 <0>         0.1379
     23 C14        -2.4961    1.2167    0.0205 C.ar      1 <0>        -0.0732
     24 C15        -1.3056    1.9325    0.0187 C.ar      1 <0>        -0.0669
     25 C16        -1.3188    3.3334    0.0322 C.ar      1 <0>        -0.0867
     26 C17        -2.5004    4.0173    0.0353 C.ar      1 <0>        -0.0627
     27 C18        -3.7075    3.3191    0.0377 C.ar      1 <0>        -0.1946
     28 C19        -5.0035    4.0162    0.0485 C.2       1 <0>         0.5581
     29 O3         -5.0657    5.2317    0.0562 O.2       1 <0>        -0.5121
     30 N4         -6.1232    3.2568    0.0501 N.am      1 <0>        -0.5263
     31 C20        -7.4385    3.9018    0.0612 C.3       1 <0>         0.1200
     32 C21        -7.8815    4.1149    1.4858 C.2       1 <0>        -0.1827
     33 C22        -8.2169    5.3132    1.8952 C.2       1 <0>        -0.1543
     34 C23        -0.0144    1.2102    0.0087 C.2       1 <0>         0.4882
     35 O4          0.0021   -0.0041    0.0020 O.co2     1 <0>        -0.6222
     36 H4        -11.7185   -7.0675   -0.9802 H         1 <0>         0.0624
     37 H5        -11.0487   -7.8236   -2.4459 H         1 <0>         0.0584
     38 H6        -12.1905   -8.7261   -1.4211 H         1 <0>         0.0550
     39 H7         -9.8296   -9.1976    1.4182 H         1 <0>         0.0630
     40 H8        -11.4785   -9.5285    0.8354 H         1 <0>         0.0643
     41 H9        -11.4713   -7.6717    2.4788 H         1 <0>         0.0645
     42 H10       -11.9785   -7.1000    0.8712 H         1 <0>         0.0681
     43 H11        -9.1670   -6.8694    2.0370 H         1 <0>         0.0641
     44 H12       -10.3439   -5.5417    1.8951 H         1 <0>         0.0691
     45 H13        -7.7868   -6.5636   -2.0416 H         1 <0>         0.0555
     46 H14        -8.2588   -8.2223   -2.4825 H         1 <0>         0.0579
     47 H15        -9.4358   -6.8945   -2.6244 H         1 <0>         0.0603
     48 H16        -7.5261   -5.5605    0.0092 H         1 <0>         0.3987
     49 H17        -6.7874   -3.3460    0.0174 H         1 <0>         0.4148
     50 H18        -6.2416   -0.8578   -0.8620 H         1 <0>         0.1381
     51 H19        -6.2325   -0.8674    0.9179 H         1 <0>         0.1382
     52 H20        -2.4823    0.1368    0.0149 H         1 <0>         0.1444
     53 H21        -0.3857    3.8772    0.0355 H         1 <0>         0.1432
     54 H22        -2.5002    5.0973    0.0415 H         1 <0>         0.1338
     55 H23        -7.3758    4.8638   -0.4475 H         1 <0>         0.1068
     56 H24        -8.1595    3.2656   -0.4521 H         1 <0>         0.1031
     57 H25        -7.9224    3.2796    2.1693 H         1 <0>         0.1183
     58 H26        -8.1759    6.1485    1.2118 H         1 <0>         0.1015
     59 H27        -8.5343    5.4659    2.9161 H         1 <0>         0.1040
     60 O5          1.1427    1.8994    0.0013 O.co2     1 <0>        -0.7433
@<TRIPOS>BOND
     1    1    2 1
     2    1   36 1
     3    1   37 1
     4    1   38 1
     5    2    3 1
     6    2    9 1
     7    2    4 1
     8    4    5 1
     9    4   39 1
    10    4   40 1
    11    5    6 1
    12    5   41 1
    13    5   42 1
    14    6    7 1
    15    6   43 1
    16    6   44 1
    17    7    8 1
    18    7    9 1
    19    7   12 1
    20    9   10 1
    21    9   11 1
    22   11   45 1
    23   11   46 1
    24   11   47 1
    25   12   13 am
    26   12   48 1
    27   13   14 2
    28   13   15 am
    29   15   16 am
    30   15   49 1
    31   16   17 2
    32   16   18 1
    33   18   19 1
    34   18   50 1
    35   18   51 1
    36   19   20 1
    37   20   30 1
    38   20   21 2
    39   21   22 1
    40   22   27 ar
    41   22   23 ar
    42   23   24 ar
    43   23   52 1
    44   24   25 ar
    45   24   34 1
    46   25   26 ar
    47   25   53 1
    48   26   27 ar
    49   26   54 1
    50   27   28 1
    51   28   29 2
    52   28   30 am
    53   30   31 1
    54   31   32 1
    55   31   55 1
    56   31   56 1
    57   32   33 2
    58   32   57 1
    59   33   58 1
    60   33   59 1
    61   34   35 2
    62   34   60 1
@<TRIPOS>MOLECULE
ZINC01323514
   57    60     0     0     0
SMALL
USER_CHARGES

@<TRIPOS>ATOM
      1 C1         -1.2192   -0.1617    0.7048 C.3       1 <0>        -0.1373
      2 C2         -0.9615   -1.6112    0.2884 C.3       1 <0>        -0.1449
      3 C3         -0.0410   -1.6350   -0.9046 C.2       1 <0>         0.5083
      4 O1          0.3685   -0.5951   -1.3754 O.2       1 <0>        -0.5406
      5 N1          0.3271   -2.8120   -1.4483 N.am      1 <0>        -0.7324
      6 C4          1.2219   -2.8352   -2.6080 C.3       1 <0>         0.1228
      7 C5          1.4796   -4.2847   -3.0244 C.3       1 <0>        -0.0584
      8 C6          2.4001   -4.3086   -4.2174 C.2       1 <0>        -0.1245
      9 C7          2.0095   -4.2764   -5.5739 C.ar      1 <0>        -0.1041
     10 C8          0.7613   -4.2180   -6.2125 C.ar      1 <0>        -0.0689
     11 C9          0.6965   -4.2000   -7.5746 C.ar      1 <0>        -0.1533
     12 C10         1.8566   -4.2388   -8.3390 C.ar      1 <0>        -0.1006
     13 C11         3.0936   -4.2963   -7.7366 C.ar      1 <0>        -0.1239
     14 C12         3.1878   -4.3159   -6.3478 C.ar      1 <0>         0.1222
     15 N2          4.2558   -4.3702   -5.4825 N.pl3     1 <0>        -0.5193
     16 H1          5.1902   -4.4056   -5.7405 H         1 <0>         0.4218
     17 C13         3.7790   -4.3598   -4.1833 C.2       1 <0>         0.1031
     18 C14         4.5698   -4.3990   -3.0188 C.2       1 <0>         0.0776
     19 C15         5.6435   -5.2783   -2.9369 C.2       1 <0>        -0.2484
     20 C16         5.8723   -6.3086   -3.9603 C.2       1 <0>         0.4851
     21 O2          5.0396   -6.4298   -5.0165 O.3       1 <0>        -0.5840
     22 N3          6.9119   -7.1133   -3.8232 N.2       1 <0>        -0.5929
     23 C17         7.7490   -7.0171   -2.7939 C.2       1 <0>         0.5464
     24 S1          9.0638   -8.1107   -2.7153 S.2       1 <0>        -0.6453
     25 N4          7.6196   -6.1101   -1.8146 N.am      1 <0>        -0.4971
     26 C18         6.6080   -5.2156   -1.8224 C.2       1 <0>         0.5608
     27 O3          6.4931   -4.3884   -0.9370 O.2       1 <0>        -0.4983
     28 C19         8.5534   -6.0863   -0.7686 C.ar      1 <0>         0.1216
     29 C20         9.6921   -5.3006   -0.8706 C.ar      1 <0>        -0.0533
     30 C21        10.6108   -5.2788    0.1613 C.ar      1 <0>        -0.1491
     31 C22        10.3987   -6.0391    1.2968 C.ar      1 <0>        -0.0751
     32 C23         9.2667   -6.8249    1.4054 C.ar      1 <0>        -0.2044
     33 C24         8.3372   -6.8472    0.3779 C.ar      1 <0>         0.1569
     34 O4          7.2203   -7.6148    0.4858 O.3       1 <0>        -0.3079
     35 C25         7.0649   -8.3684    1.6899 C.3       1 <0>         0.0298
     36 H2         -0.2743    0.3150    0.9654 H         1 <0>         0.0614
     37 H3         -1.6821    0.3771   -0.1220 H         1 <0>         0.0608
     38 H4         -1.8850   -0.1444    1.5677 H         1 <0>         0.0595
     39 H5         -0.4987   -2.1499    1.1152 H         1 <0>         0.0926
     40 H6         -1.9065   -2.0879    0.0278 H         1 <0>         0.0918
     41 H7         -0.0005   -3.6438   -1.0717 H         1 <0>         0.4006
     42 H8          0.7591   -2.2965   -3.4349 H         1 <0>         0.0716
     43 H9          2.1669   -2.3586   -2.3474 H         1 <0>         0.0685
     44 H10         1.9424   -4.8235   -2.1976 H         1 <0>         0.0760
     45 H11         0.5347   -4.7614   -3.2851 H         1 <0>         0.0810
     46 H12        -0.1457   -4.1879   -5.6268 H         1 <0>         0.1168
     47 H13        -0.2653   -4.1554   -8.0639 H         1 <0>         0.1173
     48 H14         1.7873   -4.2241   -9.4167 H         1 <0>         0.1211
     49 H15         3.9887   -4.3258   -8.3402 H         1 <0>         0.1186
     50 H16         4.3423   -3.7458   -2.1893 H         1 <0>         0.1552
     51 H17         9.8606   -4.7063   -1.7565 H         1 <0>         0.1256
     52 H18        11.4969   -4.6666    0.0808 H         1 <0>         0.1272
     53 H19        11.1197   -6.0192    2.1007 H         1 <0>         0.1255
     54 H20         9.1044   -7.4181    2.2932 H         1 <0>         0.1302
     55 H21         7.0373   -7.6897    2.5424 H         1 <0>         0.0528
     56 H22         6.1348   -8.9351    1.6464 H         1 <0>         0.0967
     57 H23         7.9041   -9.0553    1.7995 H         1 <0>         0.0570
@<TRIPOS>BOND
     1    1    2 1
     2    1   36 1
     3    1   37 1
     4    1   38 1
     5    2    3 1
     6    2   39 1
     7    2   40 1
     8    3    4 2
     9    3    5 am
    10    5    6 1
    11    5   41 1
    12    6    7 1
    13    6   42 1
    14    6   43 1
    15    7    8 1
    16    7   44 1
    17    7   45 1
    18    8   17 2
    19    8    9 1
    20    9   14 ar
    21    9   10 ar
    22   10   11 ar
    23   10   46 1
    24   11   12 ar
    25   11   47 1
    26   12   13 ar
    27   12   48 1
    28   13   14 ar
    29   13   49 1
    30   14   15 1
    31   15   16 1
    32   15   17 1
    33   17   18 1
    34   18   19 2
    35   18   50 1
    36   19   26 1
    37   19   20 1
    38   20   21 1
    39   20   22 2
    40   22   23 1
    41   23   24 2
    42   23   25 1
    43   25   26 am
    44   25   28 1
    45   26   27 2
    46   28   33 ar
    47   28   29 ar
    48   29   30 ar
    49   29   51 1
    50   30   31 ar
    51   30   52 1
    52   31   32 ar
    53   31   53 1
    54   32   33 ar
    55   32   54 1
    56   33   34 1
    57   34   35 1
    58   35   55 1
    59   35   56 1
    60   35   57 1
@<TRIPOS>MOLECULE
ZINC39862146
   43    45     0     0     0
SMALL
USER_CHARGES

@<TRIPOS>ATOM
      1 C1         -0.2239    1.4098   -1.3280 C.ar      1 <0>        -0.0712
      2 C2          0.9076    2.1163   -1.6784 C.ar      1 <0>        -0.0935
      3 C3          2.1084    1.4549   -1.8726 C.ar      1 <0>        -0.0242
      4 C4          2.1821    0.0793   -1.7160 C.ar      1 <0>        -0.0319
      5 C5          1.0574   -0.6389   -1.3652 C.ar      1 <0>        -0.0783
      6 C6         -0.1571    0.0235   -1.1684 C.ar      1 <0>        -0.0048
      7 C7         -1.3640   -0.7380   -0.7932 C.2       1 <0>         0.0497
      8 C8         -1.4251   -2.0898   -0.6028 C.2       1 <0>        -0.1969
      9 C9         -2.7441   -2.3986   -0.2611 C.2       1 <0>        -0.1476
     10 C10        -3.4446   -1.2053   -0.2567 C.2       1 <0>        -0.0078
     11 O1         -2.5847   -0.2153   -0.5765 O.3       1 <0>        -0.0971
     12 C11        -4.8164   -1.0499    0.0365 C.2       1 <0>         0.0731
     13 C12        -5.3538    0.2002    0.1449 C.2       1 <0>        -0.2091
     14 C13        -4.7026    1.4713    0.1565 C.2       1 <0>         0.5268
     15 O2         -3.4914    1.5565    0.0612 O.2       1 <0>        -0.4570
     16 N1         -5.4540    2.5524    0.2731 N.am      1 <0>        -0.4900
     17 C14        -6.7980    2.4574    0.3783 C.2       1 <0>         0.2835
     18 S1         -7.9530    3.7112    0.5364 S.2       1 <0>        -0.2403
     19 S2         -7.0649    0.6926    0.3032 S.3       1 <0>         0.0028
     20 C15        -4.8205    3.8732    0.2892 C.3       1 <0>         0.0469
     21 H1         -3.7405    3.7594    0.1953 H         1 <0>         0.1083
     22 C16        -5.1463    4.5791    1.6069 C.3       1 <0>        -0.1149
     23 C17        -4.5106    3.8112    2.7676 C.3       1 <0>        -0.1400
     24 C18        -4.8314    4.5065    4.0655 C.2       1 <0>         0.5176
     25 O3         -5.5025    5.5168    4.0625 O.2       1 <0>        -0.5305
     26 N2         -4.3726    4.0057    5.2296 N.am      1 <0>        -0.8621
     27 C19        -5.3411    4.6941   -0.8625 C.2       1 <0>         0.5025
     28 O4         -6.2908    4.2955   -1.5150 O.co2     1 <0>        -0.6606
     29 O5         -4.8126    5.7567   -1.1417 O.co2     1 <0>        -0.6761
     30 Cl1         3.6921   -0.7411   -1.9622 Cl        1 <0>        -0.0459
     31 Cl2         3.5276    2.3517   -2.3146 Cl        1 <0>        -0.0458
     32 H2         -1.1588    1.9279   -1.1730 H         1 <0>         0.1552
     33 H3          0.8568    3.1880   -1.8020 H         1 <0>         0.1513
     34 H4          1.1155   -1.7105   -1.2437 H         1 <0>         0.1482
     35 H5         -0.6071   -2.7885   -0.6988 H         1 <0>         0.1560
     36 H6         -3.1404   -3.3793   -0.0430 H         1 <0>         0.1616
     37 H7         -5.4409   -1.9201    0.1750 H         1 <0>         0.1770
     38 H8         -4.7503    5.5944    1.5828 H         1 <0>         0.0962
     39 H9         -6.2272    4.6139    1.7430 H         1 <0>         0.1034
     40 H10        -4.9065    2.7960    2.7917 H         1 <0>         0.0769
     41 H11        -3.4296    3.7765    2.6315 H         1 <0>         0.0924
     42 H12        -3.8359    3.1977    5.2320 H         1 <0>         0.3985
     43 H13        -4.5792    4.4532    6.0651 H         1 <0>         0.3978
@<TRIPOS>BOND
     1    1    6 ar
     2    1    2 ar
     3    1   32 1
     4    2    3 ar
     5    2   33 1
     6    3    4 ar
     7    3   31 1
     8    4    5 ar
     9    4   30 1
    10    5    6 ar
    11    5   34 1
    12    6    7 1
    13    7   11 1
    14    7    8 2
    15    8    9 1
    16    8   35 1
    17    9   10 2
    18    9   36 1
    19   10   11 1
    20   10   12 1
    21   12   13 2
    22   12   37 1
    23   13   19 1
    24   13   14 1
    25   14   15 2
    26   14   16 am
    27   16   17 1
    28   16   20 1
    29   17   18 2
    30   17   19 1
    31   20   21 1
    32   20   22 1
    33   20   27 1
    34   22   23 1
    35   22   38 1
    36   22   39 1
    37   23   24 1
    38   23   40 1
    39   23   41 1
    40   24   25 2
    41   24   26 am
    42   26   42 1
    43   26   43 1
    44   27   28 2
    45   27   29 1
@<TRIPOS>MOLECULE
ZINC13174765
   61    64     0     0     0
SMALL
USER_CHARGES

@<TRIPOS>ATOM
      1 C1          2.5575   -0.3560    1.0021 C.3       1 <0>        -0.1128
      2 C2          1.2479   -0.8871    0.4787 C.ar      1 <0>        -0.0773
      3 C3          1.2139   -1.5994   -0.7041 C.ar      1 <0>        -0.1225
      4 C4          0.0125   -2.0866   -1.1852 C.ar      1 <0>        -0.1100
      5 C5         -1.1582   -1.8630   -0.4841 C.ar      1 <0>        -0.1215
      6 C6         -1.1309   -1.1519    0.6996 C.ar      1 <0>        -0.0674
      7 C7          0.0747   -0.6658    1.1882 C.ar      1 <0>         0.1355
      8 N1          0.1067    0.0501    2.3900 N.am      1 <0>        -0.6825
      9 C8         -0.0238   -0.5984    3.5643 C.2       1 <0>         0.5337
     10 O1         -0.0863   -1.8095    3.5846 O.2       1 <0>        -0.5040
     11 C9         -0.0921    0.1813    4.8521 C.3       1 <0>        -0.1301
     12 S1         -0.2659   -0.9670    6.2457 S.3       1 <0>        -0.0405
     13 C10        -0.3310    0.0840    7.6584 C.2       1 <0>         0.2116
     14 C11        -0.4586   -0.4893    8.9120 C.2       1 <0>        -0.2133
     15 C12        -0.5106    0.4498   10.1039 C.3       1 <0>         0.1290
     16 H1         -1.4470    0.2758   10.6340 H         1 <0>         0.0466
     17 C13        -0.4149    1.9295    9.7843 C.2       1 <0>        -0.3962
     18 C14        -0.4489    2.8335   10.7766 C.2       1 <0>         0.3292
     19 C15        -0.3575    4.3095   10.4942 C.3       1 <0>        -0.1296
     20 C16         0.4640    4.5306    9.2208 C.3       1 <0>        -0.1092
     21 C17        -0.1938    3.7666    8.0685 C.3       1 <0>        -0.0759
     22 C18        -0.2900    2.3039    8.4339 C.2       1 <0>         0.2995
     23 N2         -0.2501    1.4044    7.4828 N.2       1 <0>        -0.6404
     24 O2         -0.5679    2.4111   12.0512 O.3       1 <0>        -0.6306
     25 C19         0.6243    0.0977   11.0307 C.ar      1 <0>        -0.0034
     26 C20         1.9300    0.1748   10.5826 C.ar      1 <0>        -0.1252
     27 C21         2.9746   -0.1471   11.4289 C.ar      1 <0>        -0.1161
     28 C22         2.7142   -0.5476   12.7296 C.ar      1 <0>         0.0481
     29 C23         1.4001   -0.6247   13.1807 C.ar      1 <0>         0.0942
     30 C24         0.3579   -0.2961   12.3288 C.ar      1 <0>        -0.1553
     31 O3          1.1395   -1.0173   14.4564 O.3       1 <0>        -0.3161
     32 C25        -0.2330   -1.0733   14.8504 C.3       1 <0>         0.0278
     33 O4          3.7407   -0.8651   13.5632 O.3       1 <0>        -0.4912
     34 C26        -0.5388   -1.9095    9.0778 C.1       1 <0>         0.2863
     35 N3         -0.6023   -3.0360    9.2092 N.1       1 <0>        -0.4742
     36 C27        -2.4073   -0.9083    1.4628 C.3       1 <0>        -0.1157
     37 H2          3.0213   -1.1032    1.6460 H         1 <0>         0.0728
     38 H3          3.2205   -0.1356    0.1654 H         1 <0>         0.0673
     39 H4          2.3780    0.5548    1.5732 H         1 <0>         0.0658
     40 H5          2.1265   -1.7756   -1.2540 H         1 <0>         0.1243
     41 H6         -0.0115   -2.6426   -2.1108 H         1 <0>         0.1233
     42 H7         -2.0950   -2.2445   -0.8627 H         1 <0>         0.1244
     43 H8          0.2227    1.0130    2.3780 H         1 <0>         0.4086
     44 H9          0.8213    0.7638    4.9730 H         1 <0>         0.1194
     45 H10        -0.9503    0.8527    4.8253 H         1 <0>         0.1199
     46 H11        -1.3592    4.7164   10.3562 H         1 <0>         0.0788
     47 H12         0.1275    4.8109   11.3317 H         1 <0>         0.0742
     48 H13         0.4923    5.5943    8.9845 H         1 <0>         0.0666
     49 H14         1.4783    4.1612    9.3718 H         1 <0>         0.0658
     50 H15        -1.1931    4.1643    7.8914 H         1 <0>         0.0814
     51 H16         0.4085    3.8779    7.1669 H         1 <0>         0.0786
     52 H17         2.1342    0.4868    9.5690 H         1 <0>         0.1174
     53 H18         3.9936   -0.0868   11.0761 H         1 <0>         0.1238
     54 H19        -0.6627   -0.3515   12.6776 H         1 <0>         0.1233
     55 H20        -0.3000   -1.3999   15.8882 H         1 <0>         0.0922
     56 H21        -0.6801   -0.0841   14.7512 H         1 <0>         0.0584
     57 H22        -0.7656   -1.7784   14.2124 H         1 <0>         0.0503
     58 H23         4.0804   -0.1160   14.0718 H         1 <0>         0.3746
     59 H24        -2.6220   -1.7692    2.0959 H         1 <0>         0.0758
     60 H25        -2.2953   -0.0195    2.0838 H         1 <0>         0.0649
     61 H26        -3.2278   -0.7599    0.7607 H         1 <0>         0.0675
@<TRIPOS>BOND
     1    1    2 1
     2    1   37 1
     3    1   38 1
     4    1   39 1
     5    2    7 ar
     6    2    3 ar
     7    3    4 ar
     8    3   40 1
     9    4    5 ar
    10    4   41 1
    11    5    6 ar
    12    5   42 1
    13    6    7 ar
    14    6   36 1
    15    7    8 1
    16    8    9 am
    17    8   43 1
    18    9   10 2
    19    9   11 1
    20   11   12 1
    21   11   44 1
    22   11   45 1
    23   12   13 1
    24   13   23 1
    25   13   14 2
    26   14   15 1
    27   14   34 1
    28   15   16 1
    29   15   17 1
    30   15   25 1
    31   17   22 1
    32   17   18 2
    33   18   19 1
    34   18   24 1
    35   19   20 1
    36   19   46 1
    37   19   47 1
    38   20   21 1
    39   20   48 1
    40   20   49 1
    41   21   22 1
    42   21   50 1
    43   21   51 1
    44   22   23 2
    45   25   30 ar
    46   25   26 ar
    47   26   27 ar
    48   26   52 1
    49   27   28 ar
    50   27   53 1
    51   28   29 ar
    52   28   33 1
    53   29   30 ar
    54   29   31 1
    55   30   54 1
    56   31   32 1
    57   32   55 1
    58   32   56 1
    59   32   57 1
    60   33   58 1
    61   34   35 3
    62   36   59 1
    63   36   60 1
    64   36   61 1
@<TRIPOS>MOLECULE
ZINC13278756
   39    41     0     0     0
SMALL
USER_CHARGES
2,4-dichloro-5-[(2,3-dihydro-1,4-benzodioxine-6-carbonylamino)sulfamoyl]benzoic acid
@<TRIPOS>ATOM
      1 C1          1.1911   -1.0306   -0.6632 C.ar      1 <0>        -0.0751
      2 C2         -0.0425   -0.4399   -0.8283 C.ar      1 <0>        -0.1157
      3 C3         -0.1449    0.9379   -0.9779 C.ar      1 <0>         0.0814
      4 C4          1.0017    1.7287   -0.9588 C.ar      1 <0>         0.0408
      5 C5          2.2427    1.1417   -0.7952 C.ar      1 <0>        -0.0463
      6 C6          2.3448   -0.2437   -0.6460 C.ar      1 <0>        -0.1273
      7 C7          3.6680   -0.8738   -0.4702 C.2       1 <0>         0.5730
      8 O1          4.6712   -0.1870   -0.4555 O.2       1 <0>        -0.5160
      9 N1          3.7642   -2.2104   -0.3261 N.am      1 <0>        -0.5039
     10 N2          5.0201   -2.8084   -0.1593 N.pl3     1 <0>        -0.8990
     11 S1          5.3115   -3.7686    1.1581 S.o2      1 <0>         2.6956
     12 O2          6.5979   -4.3412    0.9666 O.2       1 <0>        -0.9262
     13 O3          4.9848   -2.9953    2.3046 O.2       1 <0>        -0.9294
     14 C8          4.1554   -5.0970    1.1004 C.ar      1 <0>        -0.6974
     15 C9          3.2038   -5.2236    2.0899 C.ar      1 <0>         0.0452
     16 C10         2.2849   -6.2745    2.0410 C.ar      1 <0>        -0.1190
     17 C11         2.3431   -7.1976    0.9924 C.ar      1 <0>         0.0540
     18 C12         3.3040   -7.0618    0.0108 C.ar      1 <0>        -0.1366
     19 C13         4.2086   -6.0148    0.0640 C.ar      1 <0>         0.0578
     20 Cl1         5.4146   -5.8512   -1.1740 Cl        1 <0>        -0.0457
     21 Cl2         1.2101   -8.5112    0.9254 Cl        1 <0>        -0.0129
     22 C14         1.2608   -6.4131    3.0946 C.2       1 <0>         0.4852
     23 O4          0.4658   -7.3308    3.0520 O.co2     1 <0>        -0.5976
     24 O5          0.9174    3.0806   -1.0956 O.3       1 <0>        -0.3033
     25 C15        -0.3056    3.5981   -1.6306 C.3       1 <0>         0.0201
     26 C16        -1.4737    2.9075   -0.9140 C.3       1 <0>         0.0182
     27 O6         -1.3720    1.4983   -1.1477 O.3       1 <0>        -0.3021
     28 H1          1.2659   -2.1017   -0.5468 H         1 <0>         0.1394
     29 H2         -0.9335   -1.0500   -0.8419 H         1 <0>         0.1470
     30 H3          3.1325    1.7536   -0.7826 H         1 <0>         0.1514
     31 H4          2.9638   -2.7583   -0.3378 H         1 <0>         0.4217
     32 H5          5.7189   -2.6600   -0.8154 H         1 <0>         0.4289
     33 H6          3.1665   -4.5095    2.8992 H         1 <0>         0.1716
     34 H7          3.3506   -7.7738   -0.8000 H         1 <0>         0.1501
     35 H8         -0.3548    4.6738   -1.4614 H         1 <0>         0.1241
     36 H9         -0.3556    3.3916   -2.6997 H         1 <0>         0.0789
     37 H10        -1.4193    3.1088    0.1559 H         1 <0>         0.0823
     38 H11        -2.4190    3.2781   -1.3106 H         1 <0>         0.1247
     39 O7          1.2074   -5.5220    4.1036 O.co2     1 <0>        -0.7380
@<TRIPOS>BOND
     1    1    6 ar
     2    1    2 ar
     3    1   28 1
     4    2    3 ar
     5    2   29 1
     6    3   27 1
     7    3    4 ar
     8    4    5 ar
     9    4   24 1
    10    5    6 ar
    11    5   30 1
    12    6    7 1
    13    7    8 2
    14    7    9 am
    15    9   10 1
    16    9   31 1
    17   10   11 1
    18   10   32 1
    19   11   12 2
    20   11   13 2
    21   11   14 1
    22   14   19 ar
    23   14   15 ar
    24   15   16 ar
    25   15   33 1
    26   16   17 ar
    27   16   22 1
    28   17   18 ar
    29   17   21 1
    30   18   19 ar
    31   18   34 1
    32   19   20 1
    33   22   23 2
    34   22   39 1
    35   24   25 1
    36   25   26 1
    37   25   35 1
    38   25   36 1
    39   26   27 1
    40   26   37 1
    41   26   38 1
@<TRIPOS>MOLECULE
ZINC09251761
   41    43     0     0     0
SMALL
USER_CHARGES

@<TRIPOS>ATOM
      1 C1         -0.0814    1.5015    0.0178 C.3       1 <0>        -0.0897
      2 C2         -0.0437   -0.0050    0.0066 C.ar      1 <0>        -0.1937
      3 C3         -0.0588   -0.7043    1.1997 C.ar      1 <0>        -0.0504
      4 C4         -0.0248   -2.0849    1.1935 C.ar      1 <0>        -0.2538
      5 C5          0.0245   -2.7716   -0.0129 C.ar      1 <0>         0.2991
      6 C6          0.0396   -2.0662   -1.2101 C.ar      1 <0>        -0.1449
      7 C7          0.0001   -0.6849   -1.1965 C.ar      1 <0>        -0.0462
      8 Br1         0.1074   -2.9954   -2.8557 Br        1 <0>        -0.0758
      9 N1          0.0595   -4.1684   -0.0226 N.2       1 <0>        -1.0673
     10 S1          0.2030   -5.0030    1.4005 S.o2      1 <0>         2.5990
     11 O1          1.4482   -4.6233    1.9702 O.2       1 <0>        -1.0241
     12 O2         -1.0297   -4.8457    2.0897 O.2       1 <0>        -1.0218
     13 C8          0.3366   -6.7116    0.9912 C.ar      1 <0>        -0.5978
     14 C9         -0.8022   -7.4890    0.8822 C.ar      1 <0>        -0.0058
     15 C10        -0.6935   -8.8247    0.5617 C.ar      1 <0>        -0.1428
     16 C11         0.5574   -9.4073    0.3444 C.ar      1 <0>         0.1627
     17 C12         1.6981   -8.6287    0.4538 C.ar      1 <0>         0.1004
     18 C13         1.5754   -7.2745    0.7737 C.ar      1 <0>        -0.0158
     19 N2          2.9874   -9.1137    0.2565 N.am      1 <0>        -0.6528
     20 C14         3.4486  -10.2860    0.6855 C.2       1 <0>         0.5302
     21 O3          4.6081  -10.5793    0.4840 O.2       1 <0>        -0.5196
     22 C15         2.5570  -11.2557    1.4173 C.3       1 <0>        -0.1288
     23 H1          3.1306  -12.1366    1.7055 H         1 <0>         0.1443
     24 C16         1.4376  -11.6585    0.4924 C.2       1 <0>         0.5325
     25 O4          1.3224  -12.8217    0.1687 O.2       1 <0>        -0.5183
     26 N3          0.5729  -10.7616    0.0248 N.am      1 <0>        -0.6565
     27 C17         1.9800  -10.5848    2.6654 C.3       1 <0>        -0.1576
     28 H2         -1.1176    1.8392   -0.0025 H         1 <0>         0.0529
     29 H3          0.4033    1.8704    0.9217 H         1 <0>         0.0534
     30 H4          0.4427    1.8846   -0.8578 H         1 <0>         0.0534
     31 H5         -0.0969   -0.1700    2.1375 H         1 <0>         0.1080
     32 H6         -0.0363   -2.6301    2.1257 H         1 <0>         0.1045
     33 H7          0.0072   -0.1359   -2.1265 H         1 <0>         0.1141
     34 H8         -1.7749   -7.0499    1.0482 H         1 <0>         0.1507
     35 H9         -1.5853   -9.4281    0.4781 H         1 <0>         0.1420
     36 H10         2.4616   -6.6628    0.8558 H         1 <0>         0.1512
     37 H11         3.6029   -8.5488   -0.2364 H         1 <0>         0.4156
     38 H12        -0.1052  -11.0794   -0.5917 H         1 <0>         0.4143
     39 H13         1.3989   -9.7105    2.3722 H         1 <0>         0.0754
     40 H14         1.3360  -11.2893    3.1917 H         1 <0>         0.0792
     41 H15         2.7941  -10.2767    3.3216 H         1 <0>         0.0809
@<TRIPOS>BOND
     1    1    2 1
     2    1   28 1
     3    1   29 1
     4    1   30 1
     5    2    7 ar
     6    2    3 ar
     7    3    4 ar
     8    3   31 1
     9    4    5 ar
    10    4   32 1
    11    5    6 ar
    12    5    9 1
    13    6    7 ar
    14    6    8 1
    15    7   33 1
    16    9   10 1
    17   10   11 2
    18   10   12 2
    19   10   13 1
    20   13   18 ar
    21   13   14 ar
    22   14   15 ar
    23   14   34 1
    24   15   16 ar
    25   15   35 1
    26   16   26 1
    27   16   17 ar
    28   17   18 ar
    29   17   19 1
    30   18   36 1
    31   19   20 am
    32   19   37 1
    33   20   21 2
    34   20   22 1
    35   22   23 1
    36   22   24 1
    37   22   27 1
    38   24   25 2
    39   24   26 am
    40   26   38 1
    41   27   39 1
    42   27   40 1
    43   27   41 1
@<TRIPOS>MOLECULE
ZINC33608389
   44    45     0     0     0
SMALL
USER_CHARGES

@<TRIPOS>ATOM
      1 C1         -0.7331    2.9488   -0.6733 C.3       1 <0>        -0.1630
      2 C2         -0.9489    1.5050   -0.2152 C.3       1 <0>         0.1209
      3 N1         -0.1244    0.6067   -1.0273 N.pl3     1 <0>        -0.5719
      4 C3          1.2388    0.2791   -0.6022 C.3       1 <0>         0.1273
      5 C4          1.2105   -0.9661    0.2865 C.3       1 <0>        -0.1695
      6 C5         -0.6322    0.0687   -2.1935 C.ar      1 <0>         0.6211
      7 N2          0.1305   -0.7467   -2.9104 N.ar      1 <0>        -0.5892
      8 C6         -0.3119   -1.2853   -4.0326 C.ar      1 <0>         0.2846
      9 C7         -1.6086   -0.9854   -4.4657 C.ar      1 <0>        -0.2614
     10 C8         -2.3900   -0.1132   -3.6753 C.ar      1 <0>         0.5053
     11 N3         -1.8675    0.3788   -2.5585 N.ar      1 <0>        -0.6099
     12 N4         -3.6755    0.2176   -4.0550 N.pl3     1 <0>        -0.8242
     13 N5         -2.1032   -1.5191   -5.6172 N.2       1 <0>        -0.0890
     14 N6         -3.1863   -2.2192   -5.5905 N.2       1 <0>        -0.1550
     15 C9         -3.7314   -2.5897   -4.3927 C.ar      1 <0>         0.0295
     16 C10        -2.9033   -2.9133   -3.3147 C.ar      1 <0>        -0.1221
     17 C11        -3.4606   -3.2865   -2.1086 C.ar      1 <0>         0.0526
     18 C12        -4.8374   -3.3409   -1.9651 C.ar      1 <0>        -0.6215
     19 C13        -5.6634   -3.0225   -3.0278 C.ar      1 <0>        -0.0089
     20 C14        -5.1202   -2.6413   -4.2387 C.ar      1 <0>        -0.0172
     21 Cl1        -6.1589   -2.2339   -5.5687 Cl        1 <0>        -0.0454
     22 S1         -5.5397   -3.8185   -0.4214 S.o2      1 <0>         2.6803
     23 O1         -5.7182   -2.6020    0.3560 O.2       1 <0>        -1.0466
     24 O2         -6.8086   -4.4656   -0.7167 O.2       1 <0>        -1.0528
     25 O3         -4.5975   -4.7315    0.2069 O.3       1 <0>        -1.0338
     26 Cl2        -2.4337   -3.6895   -0.7681 Cl        1 <0>        -0.0161
     27 C15         0.5673   -2.2092   -4.8354 C.3       1 <0>        -0.1101
     28 H1          0.3175    3.2142   -0.5555 H         1 <0>         0.0517
     29 H2         -1.0166    3.0437   -1.7215 H         1 <0>         0.0571
     30 H3         -1.3466    3.6172   -0.0691 H         1 <0>         0.0661
     31 H4         -0.6655    1.4102    0.8330 H         1 <0>         0.0783
     32 H5         -1.9995    1.2397   -0.3330 H         1 <0>         0.0922
     33 H6          1.8562    0.0855   -1.4794 H         1 <0>         0.0890
     34 H7          1.6557    1.1159   -0.0420 H         1 <0>         0.0752
     35 H8          0.7936   -1.8029   -0.2738 H         1 <0>         0.0620
     36 H9          2.2247   -1.2098    0.6027 H         1 <0>         0.0653
     37 H10         0.5931   -0.7725    1.1636 H         1 <0>         0.0553
     38 H11        -4.0608   -0.1733   -4.8548 H         1 <0>         0.4104
     39 H12        -4.1935    0.8409   -3.5219 H         1 <0>         0.4149
     40 H13        -1.8298   -2.8717   -3.4252 H         1 <0>         0.1415
     41 H14        -6.7359   -3.0674   -2.9087 H         1 <0>         0.1601
     42 H15         0.4173   -3.2356   -4.5006 H         1 <0>         0.0857
     43 H16         0.3090   -2.1300   -5.8914 H         1 <0>         0.0920
     44 H17         1.6116   -1.9301   -4.6949 H         1 <0>         0.0889
@<TRIPOS>BOND
     1    1    2 1
     2    1   28 1
     3    1   29 1
     4    1   30 1
     5    2    3 1
     6    2   31 1
     7    2   32 1
     8    3    4 1
     9    3    6 1
    10    4    5 1
    11    4   33 1
    12    4   34 1
    13    5   35 1
    14    5   36 1
    15    5   37 1
    16    6   11 ar
    17    6    7 ar
    18    7    8 ar
    19    8    9 ar
    20    8   27 1
    21    9   10 ar
    22    9   13 1
    23   10   11 ar
    24   10   12 1
    25   12   38 1
    26   12   39 1
    27   13   14 2
    28   14   15 1
    29   15   20 ar
    30   15   16 ar
    31   16   17 ar
    32   16   40 1
    33   17   18 ar
    34   17   26 1
    35   18   19 ar
    36   18   22 1
    37   19   20 ar
    38   19   41 1
    39   20   21 1
    40   22   23 2
    41   22   24 2
    42   22   25 1
    43   27   42 1
    44   27   43 1
    45   27   44 1
@<TRIPOS>MOLECULE
ZINC15959924
   60    64     0     0     0
SMALL
USER_CHARGES

@<TRIPOS>ATOM
      1 C1         -2.6557    1.6798    0.6374 C.3       1 <0>        -0.1050
      2 C2         -2.5710    0.1798    0.5191 C.ar      1 <0>        -0.1092
      3 C3         -3.1617   -0.4654   -0.5519 C.ar      1 <0>        -0.0752
      4 C4         -3.0865   -1.8381   -0.6657 C.ar      1 <0>        -0.1114
      5 C5         -2.4147   -2.5854    0.2990 C.ar      1 <0>         0.1668
      6 C6         -1.8255   -1.9257    1.3733 C.ar      1 <0>        -0.1447
      7 C7         -1.8971   -0.5546    1.4788 C.ar      1 <0>        -0.0310
      8 C8         -1.1985   -2.9970    2.2194 C.3       1 <0>         0.1296
      9 C9          0.3117   -2.7825    2.3767 C.3       1 <0>        -0.1361
     10 H1          0.8915   -3.3117    1.6205 H         1 <0>         0.1407
     11 C10         0.6252   -3.2609    3.8219 C.3       1 <0>        -0.1490
     12 H2          1.3904   -4.0365    3.8535 H         1 <0>         0.1485
     13 C11        -0.7295   -3.7412    4.3838 C.3       1 <0>         0.0852
     14 H3         -0.8193   -3.4743    5.4368 H         1 <0>         0.0975
     15 N1         -1.7517   -2.9998    3.5865 N.3       1 <0>        -0.6262
     16 C12        -0.8736   -5.2539    4.2051 C.3       1 <0>        -0.0886
     17 C13        -0.3518   -5.9670    5.4541 C.3       1 <0>        -0.1838
     18 C14        -0.4936   -7.4570    5.2781 C.2       1 <0>         0.4897
     19 O1         -0.9681   -7.9068    4.2490 O.co2     1 <0>        -0.6896
     20 O2         -0.1339   -8.2126    6.1648 O.co2     1 <0>        -0.7130
     21 C15         1.0528   -1.9927    4.5246 C.2       1 <0>         0.5317
     22 O3          1.3812   -1.9137    5.6889 O.2       1 <0>        -0.4658
     23 N2          1.0120   -0.9710    3.6618 N.am      1 <0>        -0.5771
     24 C16         0.6137   -1.3011    2.4115 C.2       1 <0>         0.5344
     25 O4          0.5108   -0.5432    1.4710 O.2       1 <0>        -0.4483
     26 C17         1.3756    0.3977    4.0368 C.3       1 <0>         0.1052
     27 C18         2.8706    0.6132    3.7928 C.3       1 <0>        -0.0956
     28 C19         3.2446    2.0212    4.1786 C.ar      1 <0>        -0.0811
     29 C20         3.1758    3.0358    3.2423 C.ar      1 <0>        -0.1128
     30 C21         3.5189    4.3273    3.5962 C.ar      1 <0>        -0.1193
     31 C22         3.9304    4.6042    4.8865 C.ar      1 <0>        -0.1225
     32 C23         3.9984    3.5897    5.8230 C.ar      1 <0>        -0.1183
     33 C24         3.6512    2.2990    5.4703 C.ar      1 <0>        -0.1121
     34 C25        -1.4987   -4.2858    1.5038 C.2       1 <0>         0.5417
     35 O5         -1.1692   -5.4003    1.8508 O.2       1 <0>        -0.4269
     36 N3         -2.2043   -3.9621    0.4032 N.am      1 <0>        -0.6611
     37 C26        -3.7334   -2.5314   -1.8370 C.3       1 <0>        -0.1115
     38 H4         -1.8068    2.1331    0.1257 H         1 <0>         0.0685
     39 H5         -3.5827    2.0284    0.1822 H         1 <0>         0.0647
     40 H6         -2.6389    1.9627    1.6899 H         1 <0>         0.0623
     41 H7         -3.6847    0.1082   -1.3027 H         1 <0>         0.1284
     42 H8         -1.4308   -0.0525    2.3135 H         1 <0>         0.1142
     43 H9         -1.8771   -2.0585    3.9277 H         1 <0>         0.3429
     44 H10        -1.9240   -5.5038    4.0562 H         1 <0>         0.0743
     45 H11        -0.2974   -5.5737    3.3368 H         1 <0>         0.1057
     46 H12         0.6987   -5.7171    5.6030 H         1 <0>         0.0520
     47 H13        -0.9279   -5.6473    6.3224 H         1 <0>         0.0517
     48 H14         0.8037    1.1035    3.4345 H         1 <0>         0.0945
     49 H15         1.1530    0.5566    5.0919 H         1 <0>         0.0964
     50 H16         3.4425   -0.0926    4.3951 H         1 <0>         0.0803
     51 H17         3.0931    0.4543    2.7377 H         1 <0>         0.0792
     52 H18         2.8543    2.8195    2.2342 H         1 <0>         0.1229
     53 H19         3.4658    5.1199    2.8645 H         1 <0>         0.1218
     54 H20         4.1992    5.6131    5.1628 H         1 <0>         0.1208
     55 H21         4.3202    3.8060    6.8310 H         1 <0>         0.1225
     56 H22         3.7007    1.5071    6.2030 H         1 <0>         0.1241
     57 H23        -2.5289   -4.6098   -0.2418 H         1 <0>         0.4151
     58 H24        -3.0176   -2.6063   -2.6555 H         1 <0>         0.0699
     59 H25        -4.0497   -3.5308   -1.5382 H         1 <0>         0.0621
     60 H26        -4.6010   -1.9585   -2.1643 H         1 <0>         0.0700
@<TRIPOS>BOND
     1    1    2 1
     2    1   38 1
     3    1   39 1
     4    1   40 1
     5    2    7 ar
     6    2    3 ar
     7    3    4 ar
     8    3   41 1
     9    4    5 ar
    10    4   37 1
    11    5   36 1
    12    5    6 ar
    13    6    7 ar
    14    6    8 1
    15    7   42 1
    16    8   15 1
    17    8    9 1
    18    8   34 1
    19    9   10 1
    20    9   24 1
    21    9   11 1
    22   11   12 1
    23   11   13 1
    24   11   21 1
    25   13   14 1
    26   13   15 1
    27   13   16 1
    28   15   43 1
    29   16   17 1
    30   16   44 1
    31   16   45 1
    32   17   18 1
    33   17   46 1
    34   17   47 1
    35   18   19 2
    36   18   20 1
    37   21   22 2
    38   21   23 am
    39   23   24 am
    40   23   26 1
    41   24   25 2
    42   26   27 1
    43   26   48 1
    44   26   49 1
    45   27   28 1
    46   27   50 1
    47   27   51 1
    48   28   33 ar
    49   28   29 ar
    50   29   30 ar
    51   29   52 1
    52   30   31 ar
    53   30   53 1
    54   31   32 ar
    55   31   54 1
    56   32   33 ar
    57   32   55 1
    58   33   56 1
    59   34   35 2
    60   34   36 am
    61   36   57 1
    62   37   58 1
    63   37   59 1
    64   37   60 1
@<TRIPOS>MOLECULE
ZINC63637704
   47    51     0     0     0
SMALL
USER_CHARGES

@<TRIPOS>ATOM
      1 C1         -0.0162    1.3409    0.0094 C.2       1 <0>        -0.2138
      2 C2          1.3313    1.7689   -0.0012 C.2       1 <0>        -0.1971
      3 C3          2.0923    0.6599   -0.0144 C.2       1 <0>        -0.0107
      4 O1          1.2819   -0.4111   -0.0124 O.3       1 <0>        -0.1729
      5 C4          0.0021   -0.0041    0.0020 C.2       1 <0>        -0.0379
      6 C5          3.5989    0.6249   -0.0294 C.3       1 <0>         0.0069
      7 H1          3.9898    1.6424   -0.0280 H         1 <0>         0.1167
      8 C6          4.0850   -0.1124   -1.2786 C.3       1 <0>        -0.0883
      9 C7          5.5939   -0.1828   -1.2718 C.2       1 <0>         0.2096
     10 C8          6.2795   -0.2528   -0.1148 C.2       1 <0>        -0.2538
     11 C9          7.7870   -0.3512   -0.0770 C.3       1 <0>         0.0396
     12 H2          8.0773   -1.3932    0.0566 H         1 <0>         0.0937
     13 C10         8.3869    0.1785   -1.3812 C.3       1 <0>        -0.1262
     14 H3          8.3160    1.2660   -1.4001 H         1 <0>         0.1622
     15 C11         7.5808   -0.4004   -2.5194 C.2       1 <0>         0.4890
     16 N1          8.1220   -1.0981   -3.4692 N.2       1 <0>        -0.5757
     17 C12         9.4322   -1.3799   -3.5008 C.2       1 <0>         0.6894
     18 O2          9.8797   -2.0182   -4.4350 O.2       1 <0>        -0.4888
     19 N2         10.2625   -0.9746   -2.5270 N.am      1 <0>        -0.6924
     20 C13         9.8263   -0.2329   -1.4902 C.2       1 <0>         0.5212
     21 O3         10.6068    0.1078   -0.6272 O.2       1 <0>        -0.4430
     22 N3          6.2339   -0.1623   -2.4914 N.pl3     1 <0>        -0.6269
     23 C14         8.3113    0.4645    1.0766 C.ar      1 <0>        -0.0651
     24 C15         8.0546    1.8232    1.1320 C.ar      1 <0>        -0.1350
     25 C16         8.5316    2.5762    2.1845 C.ar      1 <0>        -0.0821
     26 C17         9.2753    1.9638    3.1965 C.ar      1 <0>        -0.1264
     27 C18         9.5302    0.5915    3.1340 C.ar      1 <0>        -0.0787
     28 C19         9.0424   -0.1498    2.0782 C.ar      1 <0>        -0.0952
     29 C20         9.7895    2.7626    4.3254 C.2       1 <0>         0.5190
     30 O4          9.5650    3.9636    4.3769 O.co2     1 <0>        -0.6908
     31 O5         10.4401    2.2236    5.2095 O.co2     1 <0>        -0.6887
     32 C21         5.6074   -0.2350    1.1247 C.2       1 <0>         0.3924
     33 O6          6.2527   -0.3084    2.1514 O.2       1 <0>        -0.4166
     34 C22         4.1103   -0.1264    1.2044 C.3       1 <0>        -0.1617
     35 H4         -0.8920    1.9726    0.0252 H         1 <0>         0.1484
     36 H5          1.6822    2.7903    0.0004 H         1 <0>         0.1504
     37 H6         -0.8653   -0.6475    0.0072 H         1 <0>         0.2027
     38 H7          3.6747   -1.1222   -1.2866 H         1 <0>         0.1097
     39 H8          3.7507    0.4215   -2.1681 H         1 <0>         0.0987
     40 H9         11.2001   -1.2192   -2.5711 H         1 <0>         0.4244
     41 H10         5.7427    0.0161   -3.3086 H         1 <0>         0.4317
     42 H11         7.4796    2.2952    0.3491 H         1 <0>         0.1029
     43 H12         8.3311    3.6366    2.2262 H         1 <0>         0.1218
     44 H13        10.1043    0.1115    3.9128 H         1 <0>         0.1222
     45 H14         9.2349   -1.2114    2.0308 H         1 <0>         0.1038
     46 H15         3.8309    0.4193    2.1056 H         1 <0>         0.1059
     47 H16         3.6736   -1.1248    1.2305 H         1 <0>         0.1057
@<TRIPOS>BOND
     1    1    5 2
     2    1    2 1
     3    1   35 1
     4    2    3 2
     5    2   36 1
     6    3    4 1
     7    3    6 1
     8    4    5 1
     9    5   37 1
    10    6    7 1
    11    6   34 1
    12    6    8 1
    13    8    9 1
    14    8   38 1
    15    8   39 1
    16    9   22 1
    17    9   10 2
    18   10   11 1
    19   10   32 1
    20   11   12 1
    21   11   13 1
    22   11   23 1
    23   13   14 1
    24   13   20 1
    25   13   15 1
    26   15   16 2
    27   15   22 1
    28   16   17 1
    29   17   18 2
    30   17   19 am
    31   19   20 am
    32   19   40 1
    33   20   21 2
    34   22   41 1
    35   23   28 ar
    36   23   24 ar
    37   24   25 ar
    38   24   42 1
    39   25   26 ar
    40   25   43 1
    41   26   27 ar
    42   26   29 1
    43   27   28 ar
    44   27   44 1
    45   28   45 1
    46   29   30 2
    47   29   31 1
    48   32   33 2
    49   32   34 1
    50   34   46 1
    51   34   47 1
@<TRIPOS>MOLECULE
ZINC05957224
   42    46     0     0     0
SMALL
USER_CHARGES
(3,4,5-trihydroxyphenyl)BLAHone
@<TRIPOS>ATOM
      1 C1         -0.2549    1.1877    0.4390 C.ar      1 <0>        -0.1474
      2 C2          1.0663    0.7789    0.5186 C.ar      1 <0>        -0.0946
      3 C3          2.1211    1.6737    0.4670 C.ar      1 <0>        -0.1309
      4 C4          1.7978    3.0228    0.3359 C.ar      1 <0>         0.1068
      5 C5          0.4434    3.4357    0.2599 C.ar      1 <0>        -0.1026
      6 C6         -0.6031    2.5102    0.3150 C.ar      1 <0>        -0.0646
      7 C7          0.4689    4.8807    0.1282 C.2       1 <0>        -0.1483
      8 C8          1.7674    5.2491    0.1297 C.2       1 <0>         0.0591
      9 N1          2.5692    4.1460    0.2571 N.pl3     1 <0>        -0.5749
     10 H1          3.5386    4.1608    0.2871 H         1 <0>         0.4179
     11 C9          2.2343    6.6851    0.0037 C.3       1 <0>         0.2979
     12 H2          2.9147    6.9301    0.8193 H         1 <0>         0.1227
     13 N2          1.0262    7.5229    0.0846 N.am      1 <0>        -0.6242
     14 C10        -0.2467    7.1511   -0.5697 C.3       1 <0>         0.0836
     15 H3         -0.1410    7.0966   -1.6532 H         1 <0>         0.1131
     16 C11        -0.7112    5.8131    0.0179 C.3       1 <0>        -0.0554
     17 C12        -1.2260    8.2630   -0.1505 C.3       1 <0>         0.0459
     18 O1         -0.4153    9.1667    0.6558 O.3       1 <0>        -0.3160
     19 C13         0.8345    8.6928    0.7394 C.2       1 <0>         0.6550
     20 O2          1.7228    9.2644    1.3399 O.2       1 <0>        -0.5094
     21 C14         2.9190    6.8918   -1.3228 C.ar      1 <0>        -0.0841
     22 C15         2.2042    6.7481   -2.4972 C.ar      1 <0>        -0.1173
     23 C16         2.8292    6.9429   -3.7196 C.ar      1 <0>         0.0993
     24 C17         4.1786    7.2724   -3.7633 C.ar      1 <0>         0.0655
     25 C18         4.8951    7.4103   -2.5804 C.ar      1 <0>         0.1013
     26 C19         4.2615    7.2189   -1.3619 C.ar      1 <0>        -0.1204
     27 O3          6.2159    7.7321   -2.6179 O.3       1 <0>        -0.4805
     28 O4          4.7967    7.4598   -4.9612 O.3       1 <0>        -0.4740
     29 O5          2.1238    6.8064   -4.8743 O.3       1 <0>        -0.4817
     30 H4         -1.0360    0.4431    0.4803 H         1 <0>         0.1202
     31 H5          1.2809   -0.2747    0.6199 H         1 <0>         0.1229
     32 H6          3.1471    1.3416    0.5254 H         1 <0>         0.1290
     33 H7         -1.6360    2.8203    0.2580 H         1 <0>         0.1305
     34 H8         -1.4644    5.3711   -0.6344 H         1 <0>         0.0942
     35 H9         -1.1381    5.9782    1.0071 H         1 <0>         0.0859
     36 H10        -1.6151    8.7795   -1.0279 H         1 <0>         0.1126
     37 H11        -2.0414    7.8495    0.4430 H         1 <0>         0.1137
     38 H12         1.1566    6.4881   -2.4624 H         1 <0>         0.1386
     39 H13         4.8175    7.3259   -0.4423 H         1 <0>         0.1418
     40 H14         6.8062    6.9671   -2.6553 H         1 <0>         0.3909
     41 H15         5.1843    6.6561   -5.3339 H         1 <0>         0.3866
     42 H16         2.1285    5.9089   -5.2343 H         1 <0>         0.3911
@<TRIPOS>BOND
     1    1    6 ar
     2    1    2 ar
     3    1   30 1
     4    2    3 ar
     5    2   31 1
     6    3    4 ar
     7    3   32 1
     8    4    9 1
     9    4    5 ar
    10    5    6 ar
    11    5    7 1
    12    6   33 1
    13    7   16 1
    14    7    8 2
    15    8    9 1
    16    8   11 1
    17    9   10 1
    18   11   12 1
    19   11   13 1
    20   11   21 1
    21   13   19 am
    22   13   14 1
    23   14   15 1
    24   14   16 1
    25   14   17 1
    26   16   34 1
    27   16   35 1
    28   17   18 1
    29   17   36 1
    30   17   37 1
    31   18   19 1
    32   19   20 2
    33   21   26 ar
    34   21   22 ar
    35   22   23 ar
    36   22   38 1
    37   23   24 ar
    38   23   29 1
    39   24   25 ar
    40   24   28 1
    41   25   26 ar
    42   25   27 1
    43   26   39 1
    44   27   40 1
    45   28   41 1
    46   29   42 1
@<TRIPOS>MOLECULE
ZINC17080611
   55    58     0     0     0
SMALL
USER_CHARGES
(5R)-2-amino-8,8-dimethyl-5-(4-propoxyphenyl)-5,7,9,10-tetrahydro-3H-pyrimido[6,5-b]quinoline-4,6-dione
@<TRIPOS>ATOM
      1 C1         -0.7527    1.5927   -1.2315 C.3       1 <0>        -0.1499
      2 C2         -0.0127    1.0858    0.0080 C.3       1 <0>        -0.1242
      3 C3         -0.7288    1.5792    1.2668 C.3       1 <0>         0.0603
      4 O1         -0.0377    1.1059    2.4245 O.3       1 <0>        -0.3178
      5 C4         -0.5475    1.4575    3.6342 C.ar      1 <0>         0.1241
      6 C5         -1.6862    2.2467    3.7055 C.ar      1 <0>        -0.2131
      7 C6         -2.2055    2.5984    4.9364 C.ar      1 <0>        -0.0711
      8 C7         -1.5853    2.1732    6.0967 C.ar      1 <0>        -0.0946
      9 C8         -0.4471    1.3913    6.0283 C.ar      1 <0>        -0.0497
     10 C9          0.0732    1.0325    4.7999 C.ar      1 <0>        -0.1525
     11 C10        -2.1507    2.5631    7.4381 C.3       1 <0>         0.1061
     12 H1         -1.5284    2.1365    8.2248 H         1 <0>         0.0903
     13 C11        -2.1392    4.0576    7.5597 C.2       1 <0>        -0.3394
     14 C12        -0.9439    4.7351    7.8345 C.2       1 <0>         0.5595
     15 O2          0.1006    4.1204    7.9812 O.2       1 <0>        -0.5226
     16 N1         -0.9695    6.0810    7.9341 N.am      1 <0>        -0.6576
     17 H2         -0.1526    6.5677    8.1258 H         1 <0>         0.4149
     18 C13        -2.1388    6.7565    7.7655 C.2       1 <0>         0.6670
     19 N2         -3.2649    6.1248    7.5083 N.2       1 <0>        -0.6144
     20 C14        -3.3001    4.7915    7.4030 C.2       1 <0>         0.4549
     21 N3         -4.4890    4.1412    7.1377 N.pl3     1 <0>        -0.6234
     22 C15        -4.6294    2.8077    7.4107 C.2       1 <0>         0.2212
     23 C16        -3.5490    2.0132    7.5627 C.2       1 <0>        -0.2639
     24 C17        -3.6924    0.6419    7.8402 C.2       1 <0>         0.4026
     25 O3         -2.6995   -0.0422    7.9908 O.2       1 <0>        -0.4614
     26 C18        -5.0502    0.0055    7.9547 C.3       1 <0>        -0.1506
     27 C19        -6.0419    0.7894    7.0885 C.3       1 <0>        -0.0535
     28 C20        -6.0269    2.2515    7.5397 C.3       1 <0>        -0.0865
     29 C21        -5.6255    0.6995    5.6190 C.3       1 <0>        -0.1545
     30 C22        -7.4474    0.2103    7.2620 C.3       1 <0>        -0.1421
     31 N4         -2.1441    8.1223    7.8652 N.pl3     1 <0>        -0.8158
     32 H3         -0.7675    2.6825   -1.2255 H         1 <0>         0.0568
     33 H4         -0.2425    1.2411   -2.1283 H         1 <0>         0.0650
     34 H5         -1.7753    1.2154   -1.2238 H         1 <0>         0.0573
     35 H6          0.0021   -0.0041    0.0020 H         1 <0>         0.0737
     36 H7          1.0099    1.4631    0.0003 H         1 <0>         0.0732
     37 H8         -0.7436    2.6691    1.2728 H         1 <0>         0.0587
     38 H9         -1.7514    1.2020    1.2746 H         1 <0>         0.0599
     39 H10        -2.1686    2.5825    2.7994 H         1 <0>         0.1210
     40 H11        -3.0941    3.2097    4.9924 H         1 <0>         0.1109
     41 H12         0.0356    1.0604    6.9361 H         1 <0>         0.1290
     42 H13         0.9625    0.4220    4.7470 H         1 <0>         0.1278
     43 H14        -5.2311    4.6340    6.7540 H         1 <0>         0.4198
     44 H15        -5.0017   -0.9423    7.6395 H         1 <0>         0.0878
     45 H16        -5.3762    0.0260    8.9946 H         1 <0>         0.1002
     46 H17        -6.7071    2.8309    6.9154 H         1 <0>         0.0907
     47 H18        -6.3471    2.3135    8.5797 H         1 <0>         0.1024
     48 H19        -5.6192   -0.3447    5.3064 H         1 <0>         0.0625
     49 H20        -6.3329    1.2580    5.0060 H         1 <0>         0.0605
     50 H21        -4.6276    1.1210    5.4976 H         1 <0>         0.0646
     51 H22        -7.7442    0.2842    8.3082 H         1 <0>         0.0609
     52 H23        -8.1498    0.7702    6.6445 H         1 <0>         0.0619
     53 H24        -7.4494   -0.8361    6.9568 H         1 <0>         0.0643
     54 H25        -2.9718    8.6140    7.7466 H         1 <0>         0.4303
     55 H26        -1.3202    8.5980    8.0544 H         1 <0>         0.4184
@<TRIPOS>BOND
     1    1    2 1
     2    1   32 1
     3    1   33 1
     4    1   34 1
     5    2    3 1
     6    2   35 1
     7    2   36 1
     8    3    4 1
     9    3   37 1
    10    3   38 1
    11    4    5 1
    12    5   10 ar
    13    5    6 ar
    14    6    7 ar
    15    6   39 1
    16    7    8 ar
    17    7   40 1
    18    8    9 ar
    19    8   11 1
    20    9   10 ar
    21    9   41 1
    22   10   42 1
    23   11   12 1
    24   11   23 1
    25   11   13 1
    26   13   20 2
    27   13   14 1
    28   14   15 2
    29   14   16 am
    30   16   17 1
    31   16   18 1
    32   18   19 2
    33   18   31 1
    34   19   20 1
    35   20   21 1
    36   21   22 1
    37   21   43 1
    38   22   28 1
    39   22   23 2
    40   23   24 1
    41   24   25 2
    42   24   26 1
    43   26   27 1
    44   26   44 1
    45   26   45 1
    46   27   28 1
    47   27   29 1
    48   27   30 1
    49   28   46 1
    50   28   47 1
    51   29   48 1
    52   29   49 1
    53   29   50 1
    54   30   51 1
    55   30   52 1
    56   30   53 1
    57   31   54 1
    58   31   55 1
@<TRIPOS>MOLECULE
ZINC40372493
   38    39     0     0     0
SMALL
USER_CHARGES

@<TRIPOS>ATOM
      1 C1          0.1817    1.4107   -0.2112 C.3       1 <0>        -0.1484
      2 C2          0.1142   -0.1162   -0.1407 C.3       1 <0>        -0.0952
      3 C3         -1.3485   -0.5593   -0.0702 C.3       1 <0>        -0.1140
      4 C4         -1.4160   -2.0862    0.0004 C.3       1 <0>        -0.1175
      5 C5         -0.6751   -2.5723    1.2476 C.3       1 <0>         0.2468
      6 C6          0.7876   -2.1292    1.1770 C.3       1 <0>        -0.1203
      7 C7          0.8551   -0.6024    1.1065 C.3       1 <0>        -0.1144
      8 C8         -0.7416   -4.0763    1.3170 C.2       1 <0>         0.3603
      9 N1         -1.3392   -4.7402    0.3838 N.2       1 <0>        -0.3896
     10 O1         -1.4017   -6.1533    0.4491 O.3       1 <0>        -0.4274
     11 N2         -0.1652   -4.7429    2.3754 N.pl3     1 <0>        -0.8699
     12 N3         -1.3016   -2.0002    2.4419 N.am      1 <0>        -0.7116
     13 C9         -2.5615   -2.3456    2.7731 C.2       1 <0>         0.6035
     14 O2         -3.2106   -3.0618    2.0334 O.2       1 <0>        -0.4846
     15 C10        -3.1501   -1.8589    4.0239 C.2       1 <0>        -0.0580
     16 C11        -4.4073   -2.1359    4.4804 C.2       1 <0>        -0.1132
     17 C12        -4.5480   -1.4686    5.7063 C.2       1 <0>        -0.1630
     18 C13        -3.3840   -0.8204    5.9427 C.2       1 <0>        -0.0032
     19 O3         -2.5426   -1.0632    4.9292 O.3       1 <0>        -0.1487
     20 Br1        -3.0049    0.2455    7.4580 Br        1 <0>         0.0672
     21 H1          1.2238    1.7264   -0.2615 H         1 <0>         0.0554
     22 H2         -0.3461    1.7571   -1.0998 H         1 <0>         0.0563
     23 H3         -0.2844    1.8364    0.6773 H         1 <0>         0.0540
     24 H4          0.5804   -0.5419   -1.0293 H         1 <0>         0.0746
     25 H5         -1.8146   -0.1335    0.8184 H         1 <0>         0.0616
     26 H6         -1.8763   -0.2129   -0.9587 H         1 <0>         0.0694
     27 H7         -2.4581   -2.4018    0.0506 H         1 <0>         0.0920
     28 H8         -0.9499   -2.5119   -0.8882 H         1 <0>         0.0825
     29 H9          1.3155   -2.4756    2.0656 H         1 <0>         0.0753
     30 H10         1.2538   -2.5550    0.2884 H         1 <0>         0.0907
     31 H11         1.8972   -0.2867    1.0562 H         1 <0>         0.0750
     32 H12         0.3890   -0.1766    1.9951 H         1 <0>         0.0639
     33 H13        -1.8685   -6.5611   -0.2932 H         1 <0>         0.3998
     34 H14         0.2184   -4.2427    3.1127 H         1 <0>         0.3924
     35 H15        -0.1428   -5.7126    2.3835 H         1 <0>         0.4071
     36 H16        -0.8096   -1.3727    2.9943 H         1 <0>         0.4096
     37 H17        -5.1497   -2.7496    3.9919 H         1 <0>         0.1711
     38 H18        -5.4214   -1.4713    6.3416 H         1 <0>         0.1704
@<TRIPOS>BOND
     1    1    2 1
     2    1   21 1
     3    1   22 1
     4    1   23 1
     5    2    7 1
     6    2    3 1
     7    2   24 1
     8    3    4 1
     9    3   25 1
    10    3   26 1
    11    4    5 1
    12    4   27 1
    13    4   28 1
    14    5    6 1
    15    5    8 1
    16    5   12 1
    17    6    7 1
    18    6   29 1
    19    6   30 1
    20    7   31 1
    21    7   32 1
    22    8    9 2
    23    8   11 1
    24    9   10 1
    25   10   33 1
    26   11   34 1
    27   11   35 1
    28   12   13 am
    29   12   36 1
    30   13   14 2
    31   13   15 1
    32   15   19 1
    33   15   16 2
    34   16   17 1
    35   16   37 1
    36   17   18 2
    37   17   38 1
    38   18   19 1
    39   18   20 1
@<TRIPOS>MOLECULE
ZINC20412436
   49    53     0     0     0
SMALL
USER_CHARGES

@<TRIPOS>ATOM
      1 C1         -0.0167    1.3781    0.0096 C.ar      1 <0>        -0.1128
      2 C2          1.1709    2.0855    0.0021 C.ar      1 <0>        -0.1299
      3 C3          2.3773    1.4107   -0.0130 C.ar      1 <0>        -0.0958
      4 C4          2.3960    0.0285   -0.0201 C.ar      1 <0>        -0.1117
      5 C5          1.2084   -0.6789   -0.0117 C.ar      1 <0>        -0.0937
      6 C6          0.0021   -0.0041    0.0020 C.ar      1 <0>        -0.1259
      7 C7          3.7112   -0.7071   -0.0376 C.3       1 <0>         0.1557
      8 N1          4.1518   -0.9524    1.3379 N.am      1 <0>        -0.5543
      9 C8          4.9196   -0.0406    1.9669 C.2       1 <0>         0.5761
     10 O1          5.2473    0.9848    1.3954 O.2       1 <0>        -0.5725
     11 C9          5.3397   -0.2804    3.2874 C.2       1 <0>        -0.5420
     12 C10         4.9591   -1.4350    3.9043 C.2       1 <0>         0.5257
     13 N2          4.1770   -2.3362    3.2272 N.am      1 <0>        -0.6542
     14 H1          3.9034   -3.1589    3.6621 H         1 <0>         0.4271
     15 C11         3.7824   -2.0837    1.9658 C.2       1 <0>         0.7050
     16 O2          3.0853   -2.8918    1.3832 O.2       1 <0>        -0.5493
     17 O3          5.3490   -1.6897    5.1713 O.3       1 <0>        -0.6463
     18 C12         6.1990    0.7247    4.0102 C.3       1 <0>         0.2310
     19 H2          6.3455    0.4059    5.0422 H         1 <0>         0.1518
     20 C13         7.5371    0.8373    3.3196 C.2       1 <0>         0.0855
     21 C14         8.1528    2.0216    3.0981 C.2       1 <0>        -0.1898
     22 C15         9.3965    1.7371    2.4192 C.ar      1 <0>        -0.0894
     23 C16        10.4296    2.5511    1.9440 C.ar      1 <0>        -0.0703
     24 C17        11.4861    1.9218    1.3337 C.ar      1 <0>        -0.1448
     25 C18        11.5389    0.5452    1.1883 C.ar      1 <0>        -0.0977
     26 C19        10.5318   -0.2848    1.6491 C.ar      1 <0>        -0.1263
     27 C20         9.4462    0.3259    2.2731 C.ar      1 <0>         0.1034
     28 N3          8.3068   -0.1820    2.8297 N.pl3     1 <0>        -0.5532
     29 H3          8.0781   -1.1238    2.8716 H         1 <0>         0.4211
     30 C21         7.5713    3.3468    3.5223 C.3       1 <0>        -0.0578
     31 C22         6.4470    3.0658    4.5292 C.3       1 <0>        -0.0053
     32 N4          5.5431    2.0413    3.9886 N.4       1 <0>        -0.5010
     33 H4         -0.9591    1.9053    0.0259 H         1 <0>         0.1212
     34 H5          1.1563    3.1654    0.0076 H         1 <0>         0.1211
     35 H6          3.3051    1.9634   -0.0196 H         1 <0>         0.1283
     36 H7          1.2231   -1.7588   -0.0176 H         1 <0>         0.1291
     37 H8         -0.9258   -0.5567    0.0082 H         1 <0>         0.1227
     38 H9          3.5884   -1.6586   -0.5549 H         1 <0>         0.1006
     39 H10         4.4573   -0.1052   -0.5563 H         1 <0>         0.1048
     40 H11        10.3976    3.6252    2.0519 H         1 <0>         0.1287
     41 H12        12.3020    2.5192    0.9544 H         1 <0>         0.1195
     42 H13        12.3951    0.1047    0.6991 H         1 <0>         0.1227
     43 H14        10.5848   -1.3569    1.5298 H         1 <0>         0.1289
     44 H15         8.3439    3.9554    3.9922 H         1 <0>         0.1088
     45 H16         7.1675    3.8676    2.6541 H         1 <0>         0.0922
     46 H17         6.8780    2.7095    5.4648 H         1 <0>         0.1264
     47 H18         5.8869    3.9826    4.7134 H         1 <0>         0.1295
     48 H19         5.3020    2.2793    3.0381 H         1 <0>         0.4314
     49 H20         4.7026    2.0055    4.5457 H         1 <0>         0.4258
@<TRIPOS>BOND
     1    1    6 ar
     2    1    2 ar
     3    1   33 1
     4    2    3 ar
     5    2   34 1
     6    3    4 ar
     7    3   35 1
     8    4    5 ar
     9    4    7 1
    10    5    6 ar
    11    5   36 1
    12    6   37 1
    13    7   38 1
    14    7   39 1
    15    7    8 1
    16    8   15 am
    17    8    9 am
    18    9   10 2
    19    9   11 1
    20   11   18 1
    21   11   12 2
    22   12   17 1
    23   12   13 1
    24   13   14 1
    25   13   15 am
    26   15   16 2
    27   18   19 1
    28   18   32 1
    29   18   20 1
    30   20   28 1
    31   20   21 2
    32   21   22 1
    33   21   30 1
    34   22   27 ar
    35   22   23 ar
    36   23   24 ar
    37   23   40 1
    38   24   25 ar
    39   24   41 1
    40   25   26 ar
    41   25   42 1
    42   26   27 ar
    43   26   43 1
    44   27   28 1
    45   28   29 1
    46   30   31 1
    47   30   44 1
    48   30   45 1
    49   31   32 1
    50   31   46 1
    51   31   47 1
    52   32   48 1
    53   32   49 1
@<TRIPOS>MOLECULE
ZINC06614215
   36    38     0     0     0
SMALL
USER_CHARGES

@<TRIPOS>ATOM
      1 C1          3.2330    0.4646    0.2748 C.3       1 <0>        -0.1258
      2 C2          2.3168   -0.7287    0.1862 C.ar      1 <0>        -0.0699
      3 C3          2.0569   -1.3114   -1.0426 C.ar      1 <0>        -0.0649
      4 C4          1.2200   -2.4047   -1.1396 C.ar      1 <0>        -0.1116
      5 C5          0.6266   -2.9336    0.0017 C.ar      1 <0>         0.1706
      6 C6          0.8917   -2.3416    1.2430 C.ar      1 <0>        -0.1185
      7 C7          1.7415   -1.2436    1.3318 C.ar      1 <0>        -0.0500
      8 Br1         2.1008   -0.4544    3.0122 Br        1 <0>        -0.0205
      9 C8          0.1281   -3.1171    2.2479 C.2       1 <0>         0.0313
     10 N1          0.0792   -2.9164    3.5429 N.2       1 <0>        -0.0861
     11 N2          0.1719   -1.6153    4.0541 N.am      1 <0>        -0.5577
     12 C9          0.2522   -1.4184    5.3850 C.2       1 <0>         0.5763
     13 O1          0.3381   -2.3704    6.1363 O.2       1 <0>        -0.4893
     14 C10         0.2359   -0.0488    5.9296 C.ar      1 <0>        -0.2050
     15 C11         0.2115    1.0495    5.0639 C.ar      1 <0>        -0.0416
     16 C12         0.1959    2.3221    5.5738 C.ar      1 <0>        -0.2037
     17 C13         0.2044    2.5219    6.9518 C.ar      1 <0>         0.2530
     18 C14         0.2288    1.4307    7.8165 C.ar      1 <0>        -0.2066
     19 C15         0.2391    0.1553    7.3133 C.ar      1 <0>         0.0035
     20 N3          0.1890    3.8136    7.4655 N.pl3     1 <0>        -0.8635
     21 C16        -0.5664   -4.1650    1.4735 C.2       1 <0>         0.5937
     22 O2         -1.3048   -5.0197    1.9264 O.2       1 <0>        -0.4635
     23 N4         -0.2388   -4.0073    0.1797 N.am      1 <0>        -0.6447
     24 H1          4.2588    0.1252    0.4185 H         1 <0>         0.0824
     25 H2          3.1673    1.0424   -0.6471 H         1 <0>         0.0794
     26 H3          2.9356    1.0893    1.1171 H         1 <0>         0.0771
     27 H4          2.5132   -0.9064   -1.9338 H         1 <0>         0.1484
     28 H5          1.0252   -2.8502   -2.1039 H         1 <0>         0.1445
     29 H6          0.1784   -0.8563    3.4502 H         1 <0>         0.3982
     30 H7          0.2052    0.8953    3.9950 H         1 <0>         0.1222
     31 H8          0.1774    3.1706    4.9059 H         1 <0>         0.1308
     32 H9          0.2357    1.5891    8.8848 H         1 <0>         0.1327
     33 H10         0.2534   -0.6906    7.9845 H         1 <0>         0.1405
     34 H11         0.1724    4.5745    6.8641 H         1 <0>         0.4030
     35 H12         0.1949    3.9540    8.4253 H         1 <0>         0.4038
     36 H13        -0.5649   -4.5711   -0.5391 H         1 <0>         0.4310
@<TRIPOS>BOND
     1    1    2 1
     2    1   24 1
     3    1   25 1
     4    1   26 1
     5    2    7 ar
     6    2    3 ar
     7    3    4 ar
     8    3   27 1
     9    4    5 ar
    10    4   28 1
    11    5   23 1
    12    5    6 ar
    13    6    7 ar
    14    6    9 1
    15    7    8 1
    16    9   10 2
    17    9   21 1
    18   10   11 1
    19   11   12 am
    20   11   29 1
    21   12   13 2
    22   12   14 1
    23   14   19 ar
    24   14   15 ar
    25   15   16 ar
    26   15   30 1
    27   16   17 ar
    28   16   31 1
    29   17   18 ar
    30   17   20 1
    31   18   19 ar
    32   18   32 1
    33   19   33 1
    34   20   34 1
    35   20   35 1
    36   21   22 2
    37   21   23 am
    38   23   36 1
@<TRIPOS>MOLECULE
ZINC01760450
   35    36     0     0     0
SMALL
USER_CHARGES
1-[[(3,5-dichloro-2-hydroxy-phenyl)methyl-methyl-amino]methyl]pyrrolidine-2,5-dione
@<TRIPOS>ATOM
      1 C1         -1.9582    5.7592   -1.9357 C.3       1 <0>        -0.0478
      2 C2         -2.5614    4.5078    0.0474 C.3       1 <0>         0.0605
      3 C3         -1.3996    3.5494   -0.0043 C.ar      1 <0>        -0.1633
      4 C4         -0.1234    3.9939    0.2851 C.ar      1 <0>        -0.0633
      5 C5          0.9446    3.1163    0.2323 C.ar      1 <0>        -0.0334
      6 C6          0.7364    1.7891   -0.1001 C.ar      1 <0>        -0.0559
      7 C7         -0.5389    1.3395   -0.3857 C.ar      1 <0>        -0.0547
      8 C8         -1.6111    2.2204   -0.3382 C.ar      1 <0>         0.1410
      9 O1         -2.8664    1.7806   -0.6191 O.3       1 <0>        -0.4883
     10 Cl1        -0.8001   -0.3253   -0.8027 Cl        1 <0>        -0.0127
     11 Cl2         2.5473    3.6790    0.5906 Cl        1 <0>        -0.0215
     12 C9         -4.2886    5.4908   -1.3358 C.3       1 <0>         0.2148
     13 N1         -4.8979    5.3021   -2.6547 N.am      1 <0>        -0.5978
     14 C10        -4.7508    6.1815   -3.6533 C.2       1 <0>         0.5260
     15 O2         -4.1152    7.2121   -3.5934 O.2       1 <0>        -0.4559
     16 C11        -5.5007    5.6837   -4.8695 C.3       1 <0>        -0.1562
     17 C12        -6.1215    4.3549   -4.3926 C.3       1 <0>        -0.1559
     18 C13        -5.6524    4.2388   -2.9587 C.2       1 <0>         0.5238
     19 O3         -5.9174    3.3272   -2.2048 O.2       1 <0>        -0.4498
     20 H1         -0.9750    5.2915   -1.8826 H         1 <0>         0.1238
     21 H2         -2.2219    5.9332   -2.9789 H         1 <0>         0.1187
     22 H3         -1.9375    6.7098   -1.4027 H         1 <0>         0.1340
     23 H4         -3.4021    4.0326    0.5529 H         1 <0>         0.1439
     24 H5         -2.2687    5.4045    0.5936 H         1 <0>         0.1501
     25 H6          0.0407    5.0281    0.5492 H         1 <0>         0.1571
     26 H7          1.5710    1.1046   -0.1368 H         1 <0>         0.1619
     27 H8         -3.3247    1.3898    0.1375 H         1 <0>         0.4134
     28 H9         -4.9146    5.0231   -0.5760 H         1 <0>         0.1607
     29 H10        -4.1982    6.5567   -1.1265 H         1 <0>         0.1646
     30 H11        -4.8179    5.5113   -5.7015 H         1 <0>         0.1348
     31 H12        -6.2799    6.3907   -5.1545 H         1 <0>         0.1365
     32 H13        -5.7475    3.5214   -4.9872 H         1 <0>         0.1346
     33 H14        -7.2097    4.3990   -4.4378 H         1 <0>         0.1365
     34 N2         -2.9567    4.8498   -1.3352 N.4       1 <0>        -0.4127
     35 H15        -3.0009    3.9884   -1.8922 H         1 <0>         0.4329
@<TRIPOS>BOND
     1    1   20 1
     2    1   21 1
     3    1   22 1
     4    1   34 1
     5    2    3 1
     6    2   23 1
     7    2   24 1
     8    2   34 1
     9    3    8 ar
    10    3    4 ar
    11    4    5 ar
    12    4   25 1
    13    5    6 ar
    14    5   11 1
    15    6    7 ar
    16    6   26 1
    17    7    8 ar
    18    7   10 1
    19    8    9 1
    20    9   27 1
    21   12   13 1
    22   12   28 1
    23   12   29 1
    24   12   34 1
    25   13   18 am
    26   13   14 am
    27   14   15 2
    28   14   16 1
    29   16   17 1
    30   16   30 1
    31   16   31 1
    32   17   18 1
    33   17   32 1
    34   17   33 1
    35   18   19 2
    36   34   35 1
@<TRIPOS>MOLECULE
ZINC27792360
   42    44     0     0     0
SMALL
USER_CHARGES
(3S)-1-(3-chloro-2-methyl-phenyl)-3-[[(2S)-tetrahydrofuran-2-yl]methylamino]pyrrolidine-2,5-dione
@<TRIPOS>ATOM
      1 C1         -1.1898    3.6014   -5.1971 C.3       1 <0>        -0.1226
      2 C2          0.2151    4.1027   -4.9830 C.ar      1 <0>        -0.0490
      3 C3          0.7896    4.0427   -3.7206 C.ar      1 <0>         0.0920
      4 C4          2.0860    4.5002   -3.5283 C.ar      1 <0>        -0.0861
      5 C5          2.7994    5.0192   -4.5914 C.ar      1 <0>        -0.0992
      6 C6          2.2237    5.0834   -5.8466 C.ar      1 <0>        -0.0768
      7 C7          0.9312    4.6282   -6.0421 C.ar      1 <0>        -0.0317
      8 Cl1         0.2120    4.7100   -7.6199 Cl        1 <0>        -0.0391
      9 N1          0.0638    3.5157   -2.6431 N.am      1 <0>        -0.5131
     10 C8         -0.7081    4.2704   -1.8513 C.2       1 <0>         0.5176
     11 O1         -0.8707    5.4665   -1.9626 O.2       1 <0>        -0.4183
     12 C9         -1.3451    3.3938   -0.7952 C.3       1 <0>        -0.1715
     13 C10        -0.8017    1.9868   -1.1173 C.3       1 <0>         0.0117
     14 H1         -1.5748    1.2226   -1.2854 H         1 <0>         0.1874
     15 C11         0.0852    2.2163   -2.3216 C.2       1 <0>         0.5132
     16 O2          0.7155    1.3594   -2.9029 O.2       1 <0>        -0.4206
     17 N2         -0.0178    1.4648    0.0101 N.4       1 <0>        -0.5320
     18 C12         0.0021   -0.0041    0.0020 C.3       1 <0>        -0.0073
     19 C13         0.8260   -0.5095    1.1880 C.3       1 <0>         0.0478
     20 H2          1.7972    0.0069    1.1743 H         1 <0>         0.0922
     21 C14         0.9330   -2.0501    1.1509 C.3       1 <0>        -0.1434
     22 C15         0.8593   -2.4674    2.6368 C.3       1 <0>        -0.1591
     23 C16         0.7166   -1.1296    3.3958 C.3       1 <0>         0.0499
     24 O3          0.1521   -0.2138    2.4307 O.3       1 <0>        -0.3811
     25 H3         -1.5932    3.2235   -4.2461 H         1 <0>         0.0545
     26 H4         -1.1804    2.7899   -5.9397 H         1 <0>         0.0892
     27 H5         -1.8213    4.4249   -5.5618 H         1 <0>         0.0906
     28 H6          2.5365    4.4508   -2.5480 H         1 <0>         0.1336
     29 H7          3.8081    5.3748   -4.4419 H         1 <0>         0.1492
     30 H8          2.7835    5.4892   -6.6762 H         1 <0>         0.1490
     31 H9         -1.0400    3.7415    0.2028 H         1 <0>         0.1518
     32 H10        -2.4401    3.4496   -0.8840 H         1 <0>         0.1664
     33 H11         1.0166    1.8320   -0.0614 H         1 <0>         0.4505
     34 H12        -1.0267   -0.3852    0.0813 H         1 <0>         0.1449
     35 H13         0.4535   -0.3595   -0.9361 H         1 <0>         0.1498
     36 H14         0.0989   -2.4615    0.5635 H         1 <0>         0.0881
     37 H15         1.8869   -2.3403    0.6863 H         1 <0>         0.0932
     38 H16        -0.0090   -3.1250    2.7903 H         1 <0>         0.0866
     39 H17         1.7790   -3.0039    2.9130 H         1 <0>         0.0904
     40 H18         0.0528   -1.2684    4.2619 H         1 <0>         0.1084
     41 H19         1.7063   -0.7970    3.7420 H         1 <0>         0.0742
     42 H20        -0.4635    1.8063    0.9560 H         1 <0>         0.4688
@<TRIPOS>BOND
     1    1    2 1
     2    1   25 1
     3    1   26 1
     4    1   27 1
     5    2    7 ar
     6    2    3 ar
     7    3    4 ar
     8    3    9 1
     9    4    5 ar
    10    4   28 1
    11    5    6 ar
    12    5   29 1
    13    6    7 ar
    14    6   30 1
    15    7    8 1
    16    9   15 am
    17    9   10 am
    18   10   11 2
    19   10   12 1
    20   12   13 1
    21   12   31 1
    22   12   32 1
    23   13   14 1
    24   13   15 1
    25   13   17 1
    26   15   16 2
    27   17   18 1
    28   17   33 1
    29   17   42 1
    30   18   19 1
    31   18   34 1
    32   18   35 1
    33   19   20 1
    34   19   24 1
    35   19   21 1
    36   21   22 1
    37   21   36 1
    38   21   37 1
    39   22   23 1
    40   22   38 1
    41   22   39 1
    42   23   24 1
    43   23   40 1
    44   23   41 1
@<TRIPOS>MOLECULE
ZINC47772614
   55    57     0     0     0
SMALL
USER_CHARGES

@<TRIPOS>ATOM
      1 C1         -0.2768   -1.4423    3.7841 C.3       1 <0>        -0.1833
      2 C2         -0.2522    0.0143    3.3164 C.3       1 <0>         0.1159
      3 H1          0.2077    0.6468    4.0757 H         1 <0>         0.0990
      4 C3         -1.6782    0.5002    3.0098 C.3       1 <0>        -0.0857
      5 C4         -1.6489    0.8648    1.5426 C.ar      1 <0>        -0.1201
      6 C5         -2.6366    1.3586    0.7118 C.ar      1 <0>        -0.0799
      7 C6         -2.3603    1.6175   -0.6176 C.ar      1 <0>        -0.1175
      8 C7         -1.0918    1.3811   -1.1152 C.ar      1 <0>        -0.0943
      9 C8         -0.1035    0.8887   -0.2902 C.ar      1 <0>        -0.1182
     10 C9         -0.3749    0.6246    1.0538 C.ar      1 <0>         0.1151
     11 N1          0.4757    0.1293    2.0499 N.am      1 <0>        -0.5265
     12 C10         1.7719   -0.1940    1.8716 C.2       1 <0>         0.5093
     13 O1          2.3121    0.0298    0.8090 O.2       1 <0>        -0.5003
     14 C11         2.5500   -0.8337    2.9924 C.3       1 <0>         0.0059
     15 H2          2.0641   -0.6148    3.9432 H         1 <0>         0.1579
     16 C12         2.5976   -2.3482    2.7808 C.3       1 <0>        -0.1819
     17 N2          3.9179   -0.2981    3.0069 N.4       1 <0>        -0.3728
     18 C13         3.8728    1.1483    3.2522 C.3       1 <0>        -0.0105
     19 C14         5.2888    1.7248    3.1878 C.3       1 <0>        -0.1360
     20 C15         6.1572    1.0514    4.2544 C.3       1 <0>        -0.1123
     21 C16         6.1368   -0.4638    4.0332 C.3       1 <0>        -0.1436
     22 C17         4.6894   -0.9592    4.0663 C.3       1 <0>        -0.0100
     23 C18         7.5940    1.5653    4.1436 C.3       1 <0>         0.1212
     24 N3          8.3962    1.0121    5.2375 N.am      1 <0>        -0.7391
     25 C19         9.7019    1.3293    5.3429 C.2       1 <0>         0.5120
     26 O2         10.2127    2.0728    4.5322 O.2       1 <0>        -0.5354
     27 C20        10.5271    0.7603    6.4682 C.3       1 <0>        -0.1735
     28 H3          0.7307   -1.7518    4.0617 H         1 <0>         0.0627
     29 H4         -0.9364   -1.5358    4.6468 H         1 <0>         0.0936
     30 H5         -0.6423   -2.0769    2.9768 H         1 <0>         0.0767
     31 H6         -2.3986   -0.2980    3.1889 H         1 <0>         0.1026
     32 H7         -1.9201    1.3745    3.6141 H         1 <0>         0.1011
     33 H8         -3.6268    1.5422    1.1020 H         1 <0>         0.1335
     34 H9         -3.1329    2.0037   -1.2659 H         1 <0>         0.1356
     35 H10        -0.8749    1.5828   -2.1538 H         1 <0>         0.1352
     36 H11         0.8850    0.7059   -0.6851 H         1 <0>         0.1377
     37 H12         3.2191   -2.5747    1.9145 H         1 <0>         0.0945
     38 H13         3.0193   -2.8256    3.6653 H         1 <0>         0.1027
     39 H14         1.5882   -2.7233    2.6118 H         1 <0>         0.1125
     40 H15         3.2518    1.6258    2.4943 H         1 <0>         0.1291
     41 H16         3.4491    1.3361    4.2388 H         1 <0>         0.1313
     42 H17         5.7134    1.5379    2.2015 H         1 <0>         0.0961
     43 H18         5.2534    2.7986    3.3720 H         1 <0>         0.1194
     44 H19         5.7622    1.2806    5.2441 H         1 <0>         0.0985
     45 H20         6.5790   -0.6962    3.0644 H         1 <0>         0.0951
     46 H21         6.7075   -0.9545    4.8216 H         1 <0>         0.1156
     47 H22         4.2483   -0.7266    5.0355 H         1 <0>         0.1328
     48 H23         4.6713   -2.0377    3.9093 H         1 <0>         0.1380
     49 H24         8.0184    1.2548    3.1888 H         1 <0>         0.0751
     50 H25         7.5965    2.6536    4.2056 H         1 <0>         0.0786
     51 H26         7.9877    0.4175    5.8860 H         1 <0>         0.4002
     52 H27         9.9014    0.1197    7.0897 H         1 <0>         0.0759
     53 H28        11.3494    0.1754    6.0560 H         1 <0>         0.0994
     54 H29        10.9274    1.5741    7.0728 H         1 <0>         0.0999
     55 H30         4.3557   -0.4724    2.1147 H         1 <0>         0.4311
@<TRIPOS>BOND
     1    1    2 1
     2    1   28 1
     3    1   29 1
     4    1   30 1
     5    2    3 1
     6    2   11 1
     7    2    4 1
     8    4    5 1
     9    4   31 1
    10    4   32 1
    11    5   10 ar
    12    5    6 ar
    13    6    7 ar
    14    6   33 1
    15    7    8 ar
    16    7   34 1
    17    8    9 ar
    18    8   35 1
    19    9   10 ar
    20    9   36 1
    21   10   11 1
    22   11   12 am
    23   12   13 2
    24   12   14 1
    25   14   15 1
    26   14   16 1
    27   14   17 1
    28   16   37 1
    29   16   38 1
    30   16   39 1
    31   17   22 1
    32   17   18 1
    33   17   55 1
    34   18   19 1
    35   18   40 1
    36   18   41 1
    37   19   20 1
    38   19   42 1
    39   19   43 1
    40   20   21 1
    41   20   23 1
    42   20   44 1
    43   21   22 1
    44   21   45 1
    45   21   46 1
    46   22   47 1
    47   22   48 1
    48   23   24 1
    49   23   49 1
    50   23   50 1
    51   24   25 am
    52   24   51 1
    53   25   26 2
    54   25   27 1
    55   27   52 1
    56   27   53 1
    57   27   54 1
@<TRIPOS>MOLECULE
ZINC60567617
   42    44     0     0     0
SMALL
USER_CHARGES

@<TRIPOS>ATOM
      1 C1         -0.0169    1.3945    0.0097 C.2       1 <0>        -0.2185
      2 C2          1.2648    1.8283   -0.0002 C.2       1 <0>         0.0650
      3 N1          2.0664    0.7428   -0.0137 N.pl3     1 <0>        -0.3573
      4 N2          1.2503   -0.3958   -0.0120 N.2       1 <0>        -0.2125
      5 C3          0.0021   -0.0041    0.0020 C.2       1 <0>        -0.0112
      6 C4         -1.2065   -0.9042    0.0092 C.3       1 <0>         0.5555
      7 F1         -1.5936   -1.1757   -1.3075 F         1 <0>        -0.1659
      8 F2         -0.8917   -2.1024    0.6592 F         1 <0>        -0.1664
      9 F3         -2.2562   -0.2702    0.6825 F         1 <0>        -0.1620
     10 C5          3.5313    0.7533   -0.0280 C.3       1 <0>         0.1173
     11 C6          4.0508   -0.0641    1.1266 C.2       1 <0>         0.5046
     12 O1          3.2739   -0.6023    1.8866 O.2       1 <0>        -0.4803
     13 N3          5.3788   -0.1969    1.3146 N.am      1 <0>        -0.7368
     14 C7          5.8838   -0.9914    2.4370 C.3       1 <0>         0.1326
     15 C8          6.0793   -2.4695    2.0117 C.3       1 <0>        -0.1590
     16 C9          7.6062   -2.7213    2.1333 C.3       1 <0>        -0.0045
     17 N4          8.1868   -1.3755    2.0023 N.4       1 <0>        -0.3944
     18 C10         7.2893   -0.5284    2.8327 C.3       1 <0>         0.0259
     19 C11         7.5867    0.9251    2.4956 C.3       1 <0>        -0.1369
     20 C12         9.0382    1.2079    2.9152 C.3       1 <0>        -0.1386
     21 C13         9.9919    0.2149    2.2519 C.3       1 <0>        -0.1489
     22 C14         9.5429   -1.2306    2.5144 C.3       1 <0>        -0.0027
     23 H1         -0.8986    2.0179    0.0255 H         1 <0>         0.1682
     24 H2          1.5883    2.8587    0.0022 H         1 <0>         0.1917
     25 H3          3.8885    0.3264   -0.9652 H         1 <0>         0.1244
     26 H4          3.8882    1.7791    0.0633 H         1 <0>         0.1371
     27 H5          6.0001    0.2336    0.7067 H         1 <0>         0.4021
     28 H6          5.2057   -0.9232    3.2876 H         1 <0>         0.1396
     29 H7          5.5313   -3.1323    2.6813 H         1 <0>         0.1222
     30 H8          5.7521   -2.6141    0.9821 H         1 <0>         0.1062
     31 H9          7.8482   -3.1509    3.1054 H         1 <0>         0.1372
     32 H10         7.9538   -3.3693    1.3287 H         1 <0>         0.1379
     33 H11         7.4640   -0.7195    3.8915 H         1 <0>         0.1561
     34 H12         7.4727    1.0874    1.4238 H         1 <0>         0.0866
     35 H13         6.9085    1.5787    3.0442 H         1 <0>         0.1173
     36 H14         9.3082    2.2206    2.6157 H         1 <0>         0.0976
     37 H15         9.1231    1.1193    3.9983 H         1 <0>         0.0849
     38 H16        10.0080    0.3961    1.1772 H         1 <0>         0.0872
     39 H17        10.9950    0.3576    2.6541 H         1 <0>         0.1146
     40 H18         9.5567   -1.4327    3.5854 H         1 <0>         0.1311
     41 H19        10.2081   -1.9231    1.9987 H         1 <0>         0.1321
     42 H20         8.1504   -1.0791    1.0386 H         1 <0>         0.4212
@<TRIPOS>BOND
     1    1    5 1
     2    1    2 2
     3    1   23 1
     4    2    3 1
     5    2   24 1
     6    3    4 1
     7    3   10 1
     8    4    5 2
     9    5    6 1
    10    6    7 1
    11    6    8 1
    12    6    9 1
    13   10   11 1
    14   10   25 1
    15   10   26 1
    16   11   12 2
    17   11   13 am
    18   13   14 1
    19   13   27 1
    20   14   18 1
    21   14   15 1
    22   14   28 1
    23   15   16 1
    24   15   29 1
    25   15   30 1
    26   16   17 1
    27   16   31 1
    28   16   32 1
    29   17   22 1
    30   17   18 1
    31   17   42 1
    32   18   19 1
    33   18   33 1
    34   19   20 1
    35   19   34 1
    36   19   35 1
    37   20   21 1
    38   20   36 1
    39   20   37 1
    40   21   22 1
    41   21   38 1
    42   21   39 1
    43   22   40 1
    44   22   41 1
@<TRIPOS>MOLECULE
ZINC32428047
   43    45     0     0     0
SMALL
USER_CHARGES

@<TRIPOS>ATOM
      1 C1          1.2200    1.0800    0.8471 C.3       1 <0>        -0.1148
      2 C2          1.0297   -0.4059    0.6828 C.ar      1 <0>         0.1247
      3 C3          0.8987   -0.9503   -0.5870 C.ar      1 <0>         0.0517
      4 N1          0.7321   -2.2490   -0.7357 N.ar      1 <0>        -0.4156
      5 C4          0.6900   -3.0394    0.3335 C.ar      1 <0>        -0.0047
      6 C5          0.8224   -2.4895    1.6076 C.ar      1 <0>         0.1312
      7 N2          0.9937   -1.1870    1.7475 N.ar      1 <0>        -0.4374
      8 C6          0.5023   -4.4999    0.1706 C.2       1 <0>         0.5928
      9 O1          0.4641   -5.2203    1.1485 O.2       1 <0>        -0.4996
     10 N3          0.3741   -5.0296   -1.0620 N.am      1 <0>        -0.7379
     11 C7          0.1885   -6.4738   -1.2231 C.3       1 <0>         0.0931
     12 C8         -0.0464   -6.7963   -2.7001 C.3       1 <0>         0.0151
     13 H1         -0.9711   -6.3245   -3.0324 H         1 <0>         0.1513
     14 C9         -0.1537   -8.3118   -2.8805 C.3       1 <0>        -0.1829
     15 N4          1.0773   -6.2866   -3.4973 N.4       1 <0>        -0.3849
     16 C10         0.8138   -6.5386   -4.9205 C.3       1 <0>        -0.0025
     17 C11         1.8101   -5.7231   -5.7628 C.3       1 <0>        -0.0599
     18 C12         3.1702   -5.9367   -5.1829 C.2       1 <0>        -0.1959
     19 C13         3.4552   -6.4917   -3.9711 C.2       1 <0>        -0.1516
     20 C14         4.8030   -6.5969   -3.6372 C.2       1 <0>        -0.1541
     21 C15         5.7501   -6.1555   -4.4979 C.2       1 <0>        -0.1492
     22 S1          4.7603   -5.5540   -5.8590 S.3       1 <0>         0.1433
     23 C16         2.3137   -6.9521   -3.0698 C.3       1 <0>         0.0543
     24 H2          2.2845    1.3141    0.8302 H         1 <0>         0.0950
     25 H3          0.7201    1.6027    0.0317 H         1 <0>         0.0895
     26 H4          0.7932    1.3980    1.7984 H         1 <0>         0.0907
     27 H5          0.9329   -0.3084   -1.4548 H         1 <0>         0.1827
     28 H6          0.7888   -3.1274    2.4784 H         1 <0>         0.1857
     29 H7          0.4046   -4.4545   -1.8426 H         1 <0>         0.4035
     30 H8          1.0797   -6.9957   -0.8745 H         1 <0>         0.0978
     31 H9         -0.6733   -6.7968   -0.6391 H         1 <0>         0.1221
     32 H10         0.7711   -8.7836   -2.5482 H         1 <0>         0.0875
     33 H11        -0.9874   -8.6900   -2.2890 H         1 <0>         0.1135
     34 H12        -0.3210   -8.5415   -3.9328 H         1 <0>         0.0915
     35 H13         0.9395   -7.6003   -5.1327 H         1 <0>         0.1386
     36 H14        -0.2043   -6.2340   -5.1628 H         1 <0>         0.1442
     37 H15         1.7902   -6.0683   -6.7965 H         1 <0>         0.1306
     38 H16         1.5517   -4.6651   -5.7201 H         1 <0>         0.1117
     39 H17         5.0927   -7.0304   -2.6913 H         1 <0>         0.1434
     40 H18         6.8246   -6.1646   -4.3900 H         1 <0>         0.1999
     41 H19         2.5338   -6.6852   -2.0361 H         1 <0>         0.1393
     42 H20         2.1951   -8.0324   -3.1533 H         1 <0>         0.1459
     43 H21         1.1665   -5.2927   -3.3478 H         1 <0>         0.4204
@<TRIPOS>BOND
     1    1    2 1
     2    1   24 1
     3    1   25 1
     4    1   26 1
     5    2    7 ar
     6    2    3 ar
     7    3    4 ar
     8    3   27 1
     9    4    5 ar
    10    5    6 ar
    11    5    8 1
    12    6    7 ar
    13    6   28 1
    14    8    9 2
    15    8   10 am
    16   10   11 1
    17   10   29 1
    18   11   12 1
    19   11   30 1
    20   11   31 1
    21   12   13 1
    22   12   14 1
    23   12   15 1
    24   14   32 1
    25   14   33 1
    26   14   34 1
    27   15   23 1
    28   15   16 1
    29   15   43 1
    30   16   17 1
    31   16   35 1
    32   16   36 1
    33   17   18 1
    34   17   37 1
    35   17   38 1
    36   18   22 1
    37   18   19 2
    38   19   20 1
    39   19   23 1
    40   20   21 2
    41   20   39 1
    42   21   22 1
    43   21   40 1
    44   23   41 1
    45   23   42 1
@<TRIPOS>MOLECULE
ZINC08826459
   57    61     0     0     0
SMALL
USER_CHARGES
(10-cyano-8-thiabicyclo[5.3.0]deca-9,11-dien-9-yl)carbamoylmethyl oxoBLAHcarboxylate
@<TRIPOS>ATOM
      1 C1         -3.5439    0.0284   -2.7723 C.ar      1 <0>        -0.0361
      2 C2         -2.2758    0.5571   -2.6615 C.ar      1 <0>        -0.1521
      3 C3         -1.8357    1.0605   -1.4486 C.ar      1 <0>         0.1385
      4 C4         -2.6850    1.0383   -0.3246 C.ar      1 <0>         0.1065
      5 C5         -3.9511    0.5082   -0.4329 C.ar      1 <0>        -0.0528
      6 C6         -4.3904   -0.0015   -1.6602 C.ar      1 <0>        -0.1336
      7 C7         -5.7452   -0.5692   -1.7801 C.2       1 <0>         0.5193
      8 O1         -6.4811   -0.5947   -0.8133 O.2       1 <0>        -0.5012
      9 O2         -6.1680   -1.0599   -2.9618 O.3       1 <0>        -0.3271
     10 C8         -7.5138   -1.6033   -3.0064 C.3       1 <0>         0.0567
     11 C9         -7.8087   -2.1010   -4.3980 C.2       1 <0>         0.5133
     12 O3         -6.9675   -2.0070   -5.2666 O.2       1 <0>        -0.4692
     13 N1         -9.0072   -2.6506   -4.6772 N.am      1 <0>        -0.6175
     14 C10        -9.2788   -3.1090   -5.9589 C.2       1 <0>         0.0867
     15 C11       -10.4368   -3.7025   -6.4336 C.2       1 <0>        -0.1256
     16 C12       -10.4736   -4.0921   -7.8361 C.2       1 <0>        -0.0576
     17 C13        -9.3404   -3.8391   -8.5269 C.2       1 <0>        -0.1990
     18 S1         -8.2495   -3.0849   -7.3514 S.3       1 <0>         0.2564
     19 C14        -9.0586   -4.1423   -9.9653 C.3       1 <0>        -0.0397
     20 C15       -10.2267   -3.6433  -10.8264 C.3       1 <0>        -0.1156
     21 C16       -11.2535   -4.7654  -10.9428 C.3       1 <0>        -0.1228
     22 C17       -11.2729   -5.5958   -9.6612 C.3       1 <0>        -0.1250
     23 C18       -11.6974   -4.7357   -8.4759 C.3       1 <0>        -0.0599
     24 C19       -11.5613   -3.9223   -5.5747 C.1       1 <0>         0.2655
     25 N2        -12.4535   -4.0967   -4.8933 N.1       1 <0>        -0.4211
     26 N3         -2.2236    1.5659    0.8958 N.am      1 <0>        -0.6713
     27 C20        -0.8715    1.5799    1.1331 C.2       1 <0>         0.5425
     28 O4         -0.3970    1.9935    2.1699 O.2       1 <0>        -0.4945
     29 C21        -0.0127    1.0858    0.0080 C.3       1 <0>         0.0442
     30 H1          0.0021   -0.0041    0.0020 H         1 <0>         0.0971
     31 N4         -0.5854    1.5945   -1.2688 N.pl3     1 <0>        -0.4806
     32 C22         0.4659    1.3232   -2.2528 C.3       1 <0>         0.0493
     33 C23         1.7661    1.7397   -1.5106 C.3       1 <0>        -0.1227
     34 C24         1.4179    1.6281   -0.0027 C.3       1 <0>        -0.1040
     35 H2         -3.8842   -0.3629   -3.7197 H         1 <0>         0.1491
     36 H3         -1.6240    0.5788   -3.5224 H         1 <0>         0.1421
     37 H4         -4.6037    0.4853    0.4273 H         1 <0>         0.1472
     38 H5         -7.5956   -2.4295   -2.3001 H         1 <0>         0.1146
     39 H6         -8.2289   -0.8251   -2.7397 H         1 <0>         0.1148
     40 H7         -9.6800   -2.7258   -3.9825 H         1 <0>         0.4242
     41 H8         -8.1408   -3.6393  -10.2701 H         1 <0>         0.0778
     42 H9         -8.9447   -5.2185  -10.0948 H         1 <0>         0.0929
     43 H10       -10.6850   -2.7739  -10.3550 H         1 <0>         0.0687
     44 H11        -9.8629   -3.3744  -11.8181 H         1 <0>         0.0725
     45 H12       -12.2412   -4.3355  -11.1098 H         1 <0>         0.0643
     46 H13       -10.9939   -5.4068  -11.7850 H         1 <0>         0.0657
     47 H14       -11.9750   -6.4214   -9.7772 H         1 <0>         0.0676
     48 H15       -10.2764   -5.9972   -9.4767 H         1 <0>         0.0755
     49 H16       -12.3780   -3.9567   -8.8194 H         1 <0>         0.0812
     50 H17       -12.2035   -5.3593   -7.7391 H         1 <0>         0.0704
     51 H18        -2.8465    1.9005    1.5599 H         1 <0>         0.4167
     52 H19         0.3220    1.9303   -3.1465 H         1 <0>         0.0988
     53 H20         0.4908    0.2634   -2.5065 H         1 <0>         0.0653
     54 H21         2.0345    2.7656   -1.7628 H         1 <0>         0.0832
     55 H22         2.5820    1.0622   -1.7625 H         1 <0>         0.0836
     56 H23         1.4586    2.6083    0.4724 H         1 <0>         0.0881
     57 H24         2.0939    0.9328    0.4950 H         1 <0>         0.0886
@<TRIPOS>BOND
     1    1    6 ar
     2    1    2 ar
     3    1   35 1
     4    2    3 ar
     5    2   36 1
     6    3   31 1
     7    3    4 ar
     8    4    5 ar
     9    4   26 1
    10    5    6 ar
    11    5   37 1
    12    6    7 1
    13    7    8 2
    14    7    9 1
    15    9   10 1
    16   10   11 1
    17   10   38 1
    18   10   39 1
    19   11   12 2
    20   11   13 am
    21   13   14 1
    22   13   40 1
    23   14   18 1
    24   14   15 2
    25   15   16 1
    26   15   24 1
    27   16   23 1
    28   16   17 2
    29   17   18 1
    30   17   19 1
    31   19   20 1
    32   19   41 1
    33   19   42 1
    34   20   21 1
    35   20   43 1
    36   20   44 1
    37   21   22 1
    38   21   45 1
    39   21   46 1
    40   22   23 1
    41   22   47 1
    42   22   48 1
    43   23   49 1
    44   23   50 1
    45   24   25 3
    46   26   27 am
    47   26   51 1
    48   27   28 2
    49   27   29 1
    50   29   30 1
    51   29   34 1
    52   29   31 1
    53   31   32 1
    54   32   33 1
    55   32   52 1
    56   32   53 1
    57   33   34 1
    58   33   54 1
    59   33   55 1
    60   34   56 1
    61   34   57 1
@<TRIPOS>MOLECULE
ZINC14333193
   61    66     0     0     0
SMALL
USER_CHARGES
N'-(adamantane-1-carbonyl)-6-(2,5-dimethyl-3-furyl)-3-methyl-isoxazolo[5,4-b]pyridine-4-carbohydrazide
@<TRIPOS>ATOM
      1 C1          2.4892   -5.9876   -1.3734 C.3       1 <0>        -0.0775
      2 C2          3.2509   -4.7103   -1.1299 C.2       1 <0>        -0.0018
      3 C3          2.7157   -3.4791   -1.0891 C.2       1 <0>        -0.1878
      4 C4          3.8311   -2.5612   -0.8282 C.2       1 <0>        -0.1801
      5 C5          4.9401   -3.3437   -0.7424 C.2       1 <0>         0.0793
      6 O1          4.5730   -4.6198   -0.9197 O.3       1 <0>        -0.1737
      7 C6          6.3438   -2.8578   -0.4880 C.3       1 <0>        -0.0853
      8 C7          3.7638   -1.0874   -0.6929 C.ar      1 <0>         0.2956
      9 C8          2.5284   -0.4444   -0.8173 C.ar      1 <0>        -0.1637
     10 C9          2.4697    0.9393   -0.6901 C.ar      1 <0>         0.0087
     11 C10         3.6741    1.6319   -0.4444 C.ar      1 <0>        -0.2098
     12 C11         4.0128    3.0417   -0.2612 C.2       1 <0>         0.1598
     13 N1          5.2945    3.1097   -0.0632 N.2       1 <0>        -0.2738
     14 O2          5.8507    1.8108   -0.0906 O.3       1 <0>        -0.0787
     15 C12         4.8747    0.9105   -0.3275 C.ar      1 <0>         0.3081
     16 N2          4.8748   -0.4067   -0.4571 N.ar      1 <0>        -0.4683
     17 C13         3.0520    4.2023   -0.2950 C.3       1 <0>        -0.0850
     18 C14         1.1848    1.6633   -0.8146 C.2       1 <0>         0.5577
     19 O3          1.1302    2.8515   -0.5652 O.2       1 <0>        -0.5106
     20 N3          0.0754    1.0049   -1.2045 N.am      1 <0>        -0.5107
     21 N4         -1.1396    1.6915   -1.3279 N.am      1 <0>        -0.5191
     22 C15        -2.2479    1.0342   -1.7232 C.2       1 <0>         0.5262
     23 O4         -2.1934   -0.1515   -1.9720 O.2       1 <0>        -0.5303
     24 C16        -3.5548    1.7727   -1.8559 C.3       1 <0>        -0.0554
     25 C17        -3.9427    2.3704   -0.5020 C.3       1 <0>        -0.1042
     26 C18        -5.2696    3.1202   -0.6367 C.3       1 <0>        -0.0835
     27 C19        -6.3593    2.1498   -1.0968 C.3       1 <0>        -0.1116
     28 C20        -5.9714    1.5521   -2.4508 C.3       1 <0>        -0.0863
     29 C21        -4.6446    0.8023   -2.3160 C.3       1 <0>        -0.0873
     30 C22        -5.8207    2.6746   -3.4794 C.3       1 <0>        -0.1116
     31 C23        -4.7310    3.6450   -3.0194 C.3       1 <0>        -0.0835
     32 C24        -5.1189    4.2427   -1.6654 C.3       1 <0>        -0.1117
     33 C25        -3.4041    2.8952   -2.8846 C.3       1 <0>        -0.1043
     34 H1          2.4600   -6.1950   -2.4431 H         1 <0>         0.0849
     35 H2          2.9845   -6.8101   -0.8573 H         1 <0>         0.0796
     36 H3          1.4721   -5.8818   -0.9959 H         1 <0>         0.0921
     37 H4          1.6762   -3.2175   -1.2218 H         1 <0>         0.1581
     38 H5          6.5334   -2.8406    0.5852 H         1 <0>         0.0899
     39 H6          7.0537   -3.5288   -0.9717 H         1 <0>         0.0780
     40 H7          6.4594   -1.8527   -0.8937 H         1 <0>         0.1131
     41 H8          1.6316   -1.0147   -1.0094 H         1 <0>         0.1534
     42 H9          2.5383    4.2766    0.6635 H         1 <0>         0.0981
     43 H10         3.6021    5.1239   -0.4848 H         1 <0>         0.0755
     44 H11         2.3208    4.0456   -1.0880 H         1 <0>         0.1196
     45 H12         0.1189    0.0566   -1.4035 H         1 <0>         0.4329
     46 H13        -1.1832    2.6398   -1.1289 H         1 <0>         0.4339
     47 H14        -4.0501    1.5707    0.2309 H         1 <0>         0.0717
     48 H15        -3.1664    3.0618   -0.1742 H         1 <0>         0.0683
     49 H16        -5.5459    3.5460    0.3279 H         1 <0>         0.0774
     50 H17        -7.3046    2.6839   -1.1928 H         1 <0>         0.0666
     51 H18        -6.4666    1.3501   -0.3640 H         1 <0>         0.0644
     52 H19        -6.7478    0.8607   -2.7785 H         1 <0>         0.0772
     53 H20        -4.3682    0.3765   -3.2806 H         1 <0>         0.0723
     54 H21        -4.7519    0.0026   -1.5831 H         1 <0>         0.0723
     55 H22        -5.5444    2.2487   -4.4440 H         1 <0>         0.0644
     56 H23        -6.7660    3.2087   -3.5754 H         1 <0>         0.0666
     57 H24        -4.6236    4.4447   -3.7522 H         1 <0>         0.0775
     58 H25        -6.0642    4.7769   -1.7614 H         1 <0>         0.0676
     59 H26        -4.3425    4.9341   -1.3376 H         1 <0>         0.0650
     60 H27        -2.6278    3.5866   -2.5568 H         1 <0>         0.0682
     61 H28        -3.1278    2.4694   -3.8492 H         1 <0>         0.0717
@<TRIPOS>BOND
     1    1    2 1
     2    1   34 1
     3    1   35 1
     4    1   36 1
     5    2    6 1
     6    2    3 2
     7    3    4 1
     8    3   37 1
     9    4    5 2
    10    4    8 1
    11    5    6 1
    12    5    7 1
    13    7   38 1
    14    7   39 1
    15    7   40 1
    16    8   16 ar
    17    8    9 ar
    18    9   10 ar
    19    9   41 1
    20   10   11 ar
    21   10   18 1
    22   11   15 ar
    23   11   12 1
    24   12   13 2
    25   12   17 1
    26   13   14 1
    27   14   15 1
    28   15   16 ar
    29   17   42 1
    30   17   43 1
    31   17   44 1
    32   18   19 2
    33   18   20 am
    34   20   21 1
    35   20   45 1
    36   21   22 am
    37   21   46 1
    38   22   23 2
    39   22   24 1
    40   24   29 1
    41   24   33 1
    42   24   25 1
    43   25   26 1
    44   25   47 1
    45   25   48 1
    46   26   32 1
    47   26   27 1
    48   26   49 1
    49   27   28 1
    50   27   50 1
    51   27   51 1
    52   28   29 1
    53   28   30 1
    54   28   52 1
    55   29   53 1
    56   29   54 1
    57   30   31 1
    58   30   55 1
    59   30   56 1
    60   31   32 1
    61   31   33 1
    62   31   57 1
    63   32   58 1
    64   32   59 1
    65   33   60 1
    66   33   61 1
@<TRIPOS>MOLECULE
ZINC32127327
   47    51     0     0     0
SMALL
USER_CHARGES
N-[[2-methyl-5-(3-methyl-[1,2,4]triazolo[3,4-b][1,3,4]thiadiazol-6-yl)phenyl]carbamothioyl]benzofuran-2-carboxamide
@<TRIPOS>ATOM
      1 C1          8.5185    7.7648    0.1628 C.3       1 <0>        -0.1253
      2 C2          9.3235    6.4910    0.1395 C.ar      1 <0>        -0.0480
      3 C3         10.7025    6.5459    0.2186 C.ar      1 <0>        -0.1133
      4 C4         11.4461    5.3835    0.1974 C.ar      1 <0>        -0.0481
      5 C5         10.8064    4.1476    0.0959 C.ar      1 <0>        -0.0292
      6 C6          9.4159    4.0915    0.0233 C.ar      1 <0>        -0.0279
      7 C7          8.6773    5.2650    0.0391 C.ar      1 <0>         0.1303
      8 N1          7.2815    5.2143   -0.0402 N.pl3     1 <0>        -0.6317
      9 C8          6.6865    4.3973   -0.9318 C.2       1 <0>         0.5200
     10 S1          7.6344    3.5274   -2.0613 S.2       1 <0>        -0.4869
     11 N2          5.3452    4.2652   -0.9343 N.am      1 <0>        -0.6488
     12 C9          4.7501    3.4483   -1.8259 C.2       1 <0>         0.5842
     13 O1          5.4236    2.8302   -2.6284 O.2       1 <0>        -0.3791
     14 C10         3.2885    3.3043   -1.8286 C.2       1 <0>        -0.0419
     15 C11         2.5822    2.5128   -2.6776 C.2       1 <0>        -0.0882
     16 C12         1.1758    2.6849   -2.3162 C.ar      1 <0>        -0.1484
     17 C13        -0.0250    2.1582   -2.7984 C.ar      1 <0>        -0.0545
     18 C14        -1.2076    2.5368   -2.2287 C.ar      1 <0>        -0.1365
     19 C15        -1.2224    3.4313   -1.1669 C.ar      1 <0>        -0.0754
     20 C16        -0.0491    3.9625   -0.6769 C.ar      1 <0>        -0.1139
     21 C17         1.1663    3.5970   -1.2444 C.ar      1 <0>         0.0755
     22 O2          2.4440    3.9384   -0.9884 O.3       1 <0>        -0.1913
     23 C18        11.6019    2.8995    0.0730 C.2       1 <0>         0.1945
     24 N3         12.9003    2.7512    0.1368 N.2       1 <0>        -0.2648
     25 N4         13.4824    1.4910    0.1015 N.pl3     1 <0>        -0.3508
     26 C19        14.7317    0.9059    0.1392 C.2       1 <0>         0.2424
     27 N5         14.5745   -0.3857    0.0613 N.2       1 <0>        -0.2589
     28 N6         13.3223   -0.6738   -0.0233 N.2       1 <0>        -0.2219
     29 C20        12.6258    0.4221   -0.0031 C.2       1 <0>         0.1007
     30 S2         11.0351    1.2096   -0.0408 S.3       1 <0>         0.1560
     31 C21        16.0471    1.6329    0.2500 C.3       1 <0>        -0.0726
     32 H1          9.1976    8.6262    0.2457 H         1 <0>         0.0807
     33 H2          7.8361    7.7515    1.0254 H         1 <0>         0.0745
     34 H3          7.9343    7.8464   -0.7657 H         1 <0>         0.0771
     35 H4         11.1995    7.5015    0.2968 H         1 <0>         0.1442
     36 H5         12.5233    5.4304    0.2590 H         1 <0>         0.1428
     37 H6          8.9153    3.1373   -0.0499 H         1 <0>         0.1466
     38 H7          6.6697    5.8412    0.6251 H         1 <0>         0.4350
     39 H8          4.7361    4.8241   -0.2086 H         1 <0>         0.4441
     40 H9          2.9791    1.8842   -3.4610 H         1 <0>         0.1750
     41 H10        -0.0188    1.4581   -3.6208 H         1 <0>         0.1346
     42 H11        -2.1368    2.1338   -2.6035 H         1 <0>         0.1354
     43 H12        -2.1644    3.7176   -0.7230 H         1 <0>         0.1405
     44 H13        -0.0737    4.6611    0.1464 H         1 <0>         0.1366
     45 H14        16.8700    0.9030    0.2566 H         1 <0>         0.1057
     46 H15        16.0665    2.2158    1.1827 H         1 <0>         0.0905
     47 H16        16.1649    2.3106   -0.6084 H         1 <0>         0.0907
@<TRIPOS>BOND
     1    1    2 1
     2    1   32 1
     3    1   33 1
     4    1   34 1
     5    2    7 ar
     6    2    3 ar
     7    3    4 ar
     8    3   35 1
     9    4    5 ar
    10    4   36 1
    11    5    6 ar
    12    5   23 1
    13    6    7 ar
    14    6   37 1
    15    7    8 1
    16    8    9 1
    17    8   38 1
    18    9   10 2
    19    9   11 1
    20   11   12 am
    21   11   39 1
    22   12   13 2
    23   12   14 1
    24   14   22 1
    25   14   15 2
    26   15   16 1
    27   15   40 1
    28   16   21 ar
    29   16   17 ar
    30   17   18 ar
    31   17   41 1
    32   18   19 ar
    33   18   42 1
    34   19   20 ar
    35   19   43 1
    36   20   21 ar
    37   20   44 1
    38   21   22 1
    39   23   30 1
    40   23   24 2
    41   24   25 1
    42   25   29 1
    43   25   26 1
    44   26   27 2
    45   26   31 1
    46   27   28 1
    47   28   29 2
    48   29   30 1
    49   31   45 1
    50   31   46 1
    51   31   47 1
@<TRIPOS>MOLECULE
ZINC39918523
   57    61     0     0     0
SMALL
USER_CHARGES

@<TRIPOS>ATOM
      1 C1          0.1212    1.3867   -0.9309 C.3       1 <0>        -0.1162
      2 C2          0.1360   -0.1165   -0.8248 C.ar      1 <0>        -0.0748
      3 C3          0.2340   -0.8890   -1.9670 C.ar      1 <0>        -0.1210
      4 C4          0.2476   -2.2679   -1.8698 C.ar      1 <0>        -0.0906
      5 C5          0.1637   -2.8742   -0.6303 C.ar      1 <0>        -0.1164
      6 C6          0.0667   -2.1017    0.5119 C.ar      1 <0>        -0.0848
      7 C7          0.0574   -0.7228    0.4150 C.ar      1 <0>        -0.1207
      8 C8          0.1775   -4.3774   -0.5244 C.3       1 <0>         0.1532
      9 N1          1.5593   -4.8446   -0.3871 N.am      1 <0>        -0.5346
     10 C9          2.3769   -5.1652   -1.4561 C.ar      1 <0>         0.1751
     11 C10         2.1030   -5.1250   -2.8243 C.ar      1 <0>        -0.1387
     12 C11         3.1199   -5.5054   -3.6858 C.ar      1 <0>        -0.0733
     13 C12         4.3559   -5.9097   -3.2238 C.ar      1 <0>        -0.1443
     14 C13         4.6411   -5.9550   -1.8634 C.ar      1 <0>        -0.0475
     15 C14         3.6350   -5.5780   -1.0002 C.ar      1 <0>        -0.1480
     16 C15         3.5838   -5.5051    0.4930 C.3       1 <0>         0.0677
     17 C16         2.1861   -5.0074    0.7965 C.2       1 <0>         0.5455
     18 O1          1.7180   -4.7976    1.8955 O.2       1 <0>        -0.4721
     19 C17         4.6123   -4.5070    1.0275 C.3       1 <0>        -0.1468
     20 H1          4.3200   -4.1861    2.0274 H         1 <0>         0.1528
     21 C18         5.9452   -5.2130    1.0967 C.2       1 <0>         0.1636
     22 C19         7.0277   -4.7350    0.4567 C.2       1 <0>        -0.2153
     23 C20         6.9492   -3.5750   -0.3203 C.2       1 <0>         0.3151
     24 N2          5.8155   -2.9235   -0.4574 N.2       1 <0>        -0.5593
     25 C21         4.6955   -3.3132    0.1260 C.2       1 <0>         0.5091
     26 O2          3.6861   -2.6686   -0.0784 O.2       1 <0>        -0.4187
     27 C22         8.1858   -3.0625   -1.0124 C.3       1 <0>        -0.1251
     28 O3          6.0091   -6.3551    1.8178 O.3       1 <0>        -0.2342
     29 C23         4.9649   -7.2045    1.7120 C.2       1 <0>         0.4394
     30 C24         3.8015   -6.8557    1.1114 C.2       1 <0>        -0.3592
     31 C25         2.7586   -7.7941    1.0656 C.2       1 <0>         0.5303
     32 O4          2.5513   -8.4249    0.0445 O.2       1 <0>        -0.4828
     33 O5          1.9851   -7.9977    2.1539 O.3       1 <0>        -0.3471
     34 C26         0.9422   -8.9676    2.0363 C.3       1 <0>         0.0293
     35 N3          5.0862   -8.4656    2.2310 N.pl3     1 <0>        -0.8228
     36 H2          1.1426    1.7643   -0.8840 H         1 <0>         0.0713
     37 H3         -0.3314    1.6797   -1.8782 H         1 <0>         0.0664
     38 H4         -0.4584    1.8033   -0.1071 H         1 <0>         0.0659
     39 H5          0.2995   -0.4153   -2.9354 H         1 <0>         0.1213
     40 H6          0.3234   -2.8714   -2.7622 H         1 <0>         0.1176
     41 H7          0.0008   -2.5754    1.4802 H         1 <0>         0.1214
     42 H8         -0.0147   -0.1192    1.3076 H         1 <0>         0.1204
     43 H9         -0.3985   -4.6855    0.3481 H         1 <0>         0.0976
     44 H10        -0.2644   -4.8090   -1.4225 H         1 <0>         0.0948
     45 H11         1.1389   -4.8109   -3.1959 H         1 <0>         0.1330
     46 H12         2.9395   -5.4852   -4.7505 H         1 <0>         0.1288
     47 H13         5.1174   -6.1973   -3.9335 H         1 <0>         0.1271
     48 H14         5.6075   -6.2716   -1.4997 H         1 <0>         0.1244
     49 H15         7.9706   -5.2542    0.5446 H         1 <0>         0.1651
     50 H16         8.2575   -3.5073   -2.0049 H         1 <0>         0.1036
     51 H17         8.1280   -1.9778   -1.1037 H         1 <0>         0.0964
     52 H18         9.0665   -3.3315   -0.4292 H         1 <0>         0.0921
     53 H19         0.3986   -9.0326    2.9788 H         1 <0>         0.1038
     54 H20         0.2577   -8.6706    1.2418 H         1 <0>         0.0595
     55 H21         1.3750   -9.9394    1.7987 H         1 <0>         0.0608
     56 H22         5.9366   -8.7622    2.5911 H         1 <0>         0.4158
     57 H23         4.3217   -9.0626    2.2385 H         1 <0>         0.4262
@<TRIPOS>BOND
     1    1    2 1
     2    1   36 1
     3    1   37 1
     4    1   38 1
     5    2    7 ar
     6    2    3 ar
     7    3    4 ar
     8    3   39 1
     9    4    5 ar
    10    4   40 1
    11    5    6 ar
    12    5    8 1
    13    6    7 ar
    14    6   41 1
    15    7   42 1
    16    8    9 1
    17    8   43 1
    18    8   44 1
    19    9   17 am
    20    9   10 1
    21   10   15 ar
    22   10   11 ar
    23   11   12 ar
    24   11   45 1
    25   12   13 ar
    26   12   46 1
    27   13   14 ar
    28   13   47 1
    29   14   15 ar
    30   14   48 1
    31   15   16 1
    32   16   30 1
    33   16   17 1
    34   16   19 1
    35   17   18 2
    36   19   20 1
    37   19   25 1
    38   19   21 1
    39   21   22 2
    40   21   28 1
    41   22   23 1
    42   22   49 1
    43   23   24 2
    44   23   27 1
    45   24   25 1
    46   25   26 2
    47   27   50 1
    48   27   51 1
    49   27   52 1
    50   28   29 1
    51   29   30 2
    52   29   35 1
    53   30   31 1
    54   31   32 2
    55   31   33 1
    56   33   34 1
    57   34   53 1
    58   34   54 1
    59   34   55 1
    60   35   56 1
    61   35   57 1
@<TRIPOS>MOLECULE
ZINC08722156
   47    51     0     0     0
SMALL
USER_CHARGES

@<TRIPOS>ATOM
      1 C1         -0.0187    1.5258    0.0104 C.3       1 <0>        -0.1525
      2 C2          0.0021   -0.0041    0.0020 C.3       1 <0>         0.0794
      3 O1         -1.3386   -0.4987    0.0122 O.3       1 <0>        -0.3641
      4 C3         -1.4968   -1.8357    0.0065 C.2       1 <0>         0.6566
      5 O2         -0.5233   -2.5627   -0.0067 O.2       1 <0>        -0.5661
      6 N1         -2.7351   -2.3678    0.0155 N.am      1 <0>        -0.5923
      7 C4         -2.9394   -3.8243    0.0158 C.3       1 <0>         0.1278
      8 C5         -3.6188   -4.2464    1.3203 C.3       1 <0>        -0.0775
      9 C6         -4.8023   -3.3279    1.5882 C.2       1 <0>        -0.0040
     10 C7         -4.9048   -2.1181    0.9950 C.2       1 <0>        -0.2607
     11 S1         -6.4179   -1.4332    1.6098 S.3       1 <0>         0.2388
     12 C8         -6.8978   -2.6735    2.6019 C.2       1 <0>         0.0958
     13 C9         -5.9028   -3.6542    2.4809 C.2       1 <0>        -0.2881
     14 C10        -6.0719   -4.9051    3.2554 C.2       1 <0>         0.6003
     15 O3         -5.3515   -5.8685    3.0690 O.2       1 <0>        -0.5257
     16 N2         -7.0580   -4.9324    4.1770 N.am      1 <0>        -0.7394
     17 C11        -7.8437   -3.7612    4.5504 C.3       1 <0>         0.4401
     18 H1         -8.8316   -4.0842    4.8787 H         1 <0>         0.1293
     19 N3         -7.9923   -2.8312    3.4168 N.pl3     1 <0>        -0.6847
     20 C12        -7.1559   -3.0473    5.6854 C.ar      1 <0>        -0.1163
     21 C13        -6.3050   -3.7436    6.5240 C.ar      1 <0>        -0.0649
     22 C14        -5.6714   -3.0897    7.5676 C.ar      1 <0>         0.0426
     23 C15        -5.8934   -1.7294    7.7702 C.ar      1 <0>         0.0575
     24 C16        -6.7461   -1.0372    6.9265 C.ar      1 <0>        -0.0934
     25 C17        -7.3726   -1.6956    5.8830 C.ar      1 <0>        -0.0019
     26 Cl1        -8.4362   -0.8245    4.8229 Cl        1 <0>        -0.0437
     27 O4         -5.1628   -1.3243    8.8497 O.3       1 <0>        -0.3008
     28 C18        -4.8121   -2.5316    9.5517 C.3       1 <0>         0.2121
     29 O5         -4.8015   -3.5363    8.5204 O.3       1 <0>        -0.3009
     30 C19        -3.9369   -1.5101    0.0315 C.3       1 <0>         0.2095
     31 H2          1.0039    1.9031    0.0027 H         1 <0>         0.0823
     32 H3         -0.5459    1.8868   -0.8726 H         1 <0>         0.0671
     33 H4         -0.5289    1.8773    0.9072 H         1 <0>         0.0664
     34 H5          0.5123   -0.3556   -0.8948 H         1 <0>         0.0689
     35 H6          0.5293   -0.3651    0.8851 H         1 <0>         0.0679
     36 H7         -3.5700   -4.1026   -0.8285 H         1 <0>         0.0822
     37 H8         -1.9756   -4.3261   -0.0704 H         1 <0>         0.1044
     38 H9         -3.9687   -5.2750    1.2323 H         1 <0>         0.1062
     39 H10        -2.9068   -4.1722    2.1423 H         1 <0>         0.0834
     40 H11        -7.2548   -5.7757    4.6140 H         1 <0>         0.4100
     41 H12        -8.8214   -2.3548    3.2541 H         1 <0>         0.4265
     42 H13        -6.1346   -4.7982    6.3652 H         1 <0>         0.1477
     43 H14        -6.9200    0.0174    7.0813 H         1 <0>         0.1513
     44 H15        -3.8255   -2.4380   10.0054 H         1 <0>         0.1385
     45 H16        -5.5615   -2.7665   10.3075 H         1 <0>         0.0916
     46 H17        -3.6711   -0.5045    0.3575 H         1 <0>         0.1039
     47 H18        -4.3807   -1.4740   -0.9633 H         1 <0>         0.0888
@<TRIPOS>BOND
     1    1    2 1
     2    1   31 1
     3    1   32 1
     4    1   33 1
     5    2    3 1
     6    2   34 1
     7    2   35 1
     8    3    4 1
     9    4    5 2
    10    4    6 am
    11    6   30 1
    12    6    7 1
    13    7    8 1
    14    7   36 1
    15    7   37 1
    16    8    9 1
    17    8   38 1
    18    8   39 1
    19    9   13 1
    20    9   10 2
    21   10   11 1
    22   10   30 1
    23   11   12 1
    24   12   19 1
    25   12   13 2
    26   13   14 1
    27   14   15 2
    28   14   16 am
    29   16   17 1
    30   16   40 1
    31   17   18 1
    32   17   19 1
    33   17   20 1
    34   19   41 1
    35   20   25 ar
    36   20   21 ar
    37   21   22 ar
    38   21   42 1
    39   22   29 1
    40   22   23 ar
    41   23   24 ar
    42   23   27 1
    43   24   25 ar
    44   24   43 1
    45   25   26 1
    46   27   28 1
    47   28   29 1
    48   28   44 1
    49   28   45 1
    50   30   46 1
    51   30   47 1
@<TRIPOS>MOLECULE
ZINC35379254
   65    68     0     0     0
SMALL
USER_CHARGES

@<TRIPOS>ATOM
      1 C1         -5.5401   -4.4449   -3.7022 C.3       1 <0>        -0.1491
      2 C2         -4.6619   -4.0443   -2.5151 C.3       1 <0>        -0.1484
      3 C3         -3.3435   -4.8186   -2.5717 C.3       1 <0>         0.0793
      4 H1         -3.5523   -5.8874   -2.6171 H         1 <0>         0.1561
      5 C4         -2.5316   -4.5179   -1.3372 C.2       1 <0>         0.4974
      6 O1         -2.6172   -5.2346   -0.3625 O.2       1 <0>        -0.4942
      7 N1         -1.7087   -3.4482   -1.3215 N.am      1 <0>        -0.6606
      8 C5         -1.5274   -2.7077   -2.4975 C.ar      1 <0>         0.1593
      9 C6         -0.8785   -1.4837   -2.4661 C.ar      1 <0>        -0.1512
     10 C7         -0.7193   -0.7592   -3.6330 C.ar      1 <0>         0.0376
     11 C8         -1.2059   -1.2524   -4.8297 C.ar      1 <0>        -0.6802
     12 C9         -1.8500   -2.4755   -4.8683 C.ar      1 <0>        -0.0031
     13 C10        -2.0081   -3.2093   -3.7050 C.ar      1 <0>         0.0528
     14 O2         -2.6115   -4.4270   -3.7352 O.3       1 <0>        -0.2898
     15 S1         -1.0051   -0.3188   -6.3104 S.o2      1 <0>         2.6954
     16 O3         -1.6597   -1.0460   -7.3409 O.2       1 <0>        -0.9465
     17 O4         -1.3436    1.0243   -5.9928 O.2       1 <0>        -0.9468
     18 N2          0.6094   -0.3256   -6.6784 N.pl3     1 <0>        -0.9934
     19 C11         1.4846    0.7652   -6.2278 C.3       1 <0>         0.1046
     20 C12         2.6720    0.1634   -5.4697 C.3       1 <0>        -0.1403
     21 C13         3.3656   -0.8734   -6.3562 C.3       1 <0>        -0.1077
     22 C14         2.3847   -1.9998   -6.6899 C.3       1 <0>        -0.1254
     23 H2          2.0314   -2.4598   -5.7670 H         1 <0>         0.1025
     24 C15         1.1952   -1.4256   -7.4566 C.3       1 <0>         0.1411
     25 C16         3.0782   -3.0367   -7.5354 C.2       1 <0>         0.5216
     26 O5          2.6609   -3.2922   -8.6451 O.2       1 <0>        -0.5313
     27 N3          4.1621   -3.6801   -7.0584 N.am      1 <0>        -0.7263
     28 C17         4.8363   -4.6881   -7.8803 C.3       1 <0>         0.1446
     29 C18         4.1391   -6.0387   -7.7049 C.3       1 <0>        -0.1294
     30 C19         4.8432   -7.0914   -8.5633 C.3       1 <0>        -0.1180
     31 C20         6.3046   -7.2114   -8.1265 C.3       1 <0>        -0.1228
     32 C21         7.0018   -5.8608   -8.3020 C.3       1 <0>        -0.1166
     33 C22         6.2977   -4.8081   -7.4435 C.3       1 <0>        -0.1259
     34 C23        -0.0129    0.5716   -3.6006 C.3       1 <0>        -0.1931
     35 H3         -6.4793   -3.8932   -3.6618 H         1 <0>         0.0655
     36 H4         -5.0217   -4.2122   -4.6324 H         1 <0>         0.0663
     37 H5         -5.7448   -5.5146   -3.6581 H         1 <0>         0.0629
     38 H6         -4.4572   -2.9746   -2.5592 H         1 <0>         0.0730
     39 H7         -5.1803   -4.2769   -1.5848 H         1 <0>         0.0886
     40 H8         -1.2487   -3.1949   -0.5060 H         1 <0>         0.4193
     41 H9         -0.4982   -1.0964   -1.5324 H         1 <0>         0.1435
     42 H10        -2.2292   -2.8578   -5.8046 H         1 <0>         0.1603
     43 H11         1.8471    1.3231   -7.0911 H         1 <0>         0.0826
     44 H12         0.9286    1.4305   -5.5673 H         1 <0>         0.1017
     45 H13         3.3779    0.9534   -5.2132 H         1 <0>         0.0863
     46 H14         2.3160   -0.3170   -4.5583 H         1 <0>         0.0751
     47 H15         3.6995   -0.3976   -7.2783 H         1 <0>         0.0757
     48 H16         4.2257   -1.2854   -5.8283 H         1 <0>         0.0717
     49 H17         0.4483   -2.2052   -7.6067 H         1 <0>         0.0981
     50 H18         1.5336   -1.0502   -8.4224 H         1 <0>         0.0903
     51 H19         4.4959   -3.4757   -6.1708 H         1 <0>         0.3992
     52 H20         4.7935   -4.3905   -8.9280 H         1 <0>         0.0895
     53 H21         4.1819   -6.3363   -6.6572 H         1 <0>         0.0625
     54 H22         3.0980   -5.9532   -8.0161 H         1 <0>         0.0679
     55 H23         4.3465   -8.0536   -8.4383 H         1 <0>         0.0654
     56 H24         4.8004   -6.7938   -9.6110 H         1 <0>         0.0652
     57 H25         6.3474   -7.5090   -7.0788 H         1 <0>         0.0622
     58 H26         6.8062   -7.9614   -8.7381 H         1 <0>         0.0647
     59 H27         8.0430   -5.9462   -7.9908 H         1 <0>         0.0676
     60 H28         6.9590   -5.5632   -9.3497 H         1 <0>         0.0658
     61 H29         6.7944   -3.8459   -7.5685 H         1 <0>         0.0685
     62 H30         6.3405   -5.1057   -6.3958 H         1 <0>         0.0672
     63 H31         1.0344    0.4337   -3.8694 H         1 <0>         0.0966
     64 H32        -0.4841    1.2505   -4.3113 H         1 <0>         0.1173
     65 H33        -0.0780    0.9932   -2.5975 H         1 <0>         0.0873
@<TRIPOS>BOND
     1    1    2 1
     2    1   35 1
     3    1   36 1
     4    1   37 1
     5    2    3 1
     6    2   38 1
     7    2   39 1
     8    3    4 1
     9    3   14 1
    10    3    5 1
    11    5    6 2
    12    5    7 am
    13    7    8 1
    14    7   40 1
    15    8   13 ar
    16    8    9 ar
    17    9   10 ar
    18    9   41 1
    19   10   11 ar
    20   10   34 1
    21   11   12 ar
    22   11   15 1
    23   12   13 ar
    24   12   42 1
    25   13   14 1
    26   15   16 2
    27   15   17 2
    28   15   18 1
    29   18   24 1
    30   18   19 1
    31   19   20 1
    32   19   43 1
    33   19   44 1
    34   20   21 1
    35   20   45 1
    36   20   46 1
    37   21   22 1
    38   21   47 1
    39   21   48 1
    40   22   23 1
    41   22   24 1
    42   22   25 1
    43   24   49 1
    44   24   50 1
    45   25   26 2
    46   25   27 am
    47   27   28 1
    48   27   51 1
    49   28   33 1
    50   28   29 1
    51   28   52 1
    52   29   30 1
    53   29   53 1
    54   29   54 1
    55   30   31 1
    56   30   55 1
    57   30   56 1
    58   31   32 1
    59   31   57 1
    60   31   58 1
    61   32   33 1
    62   32   59 1
    63   32   60 1
    64   33   61 1
    65   33   62 1
    66   34   63 1
    67   34   64 1
    68   34   65 1
@<TRIPOS>MOLECULE
ZINC09590742
   55    60     0     0     0
SMALL
USER_CHARGES
amino-oxo-phenyl-(3-pyridyl)BLAHcarbonitrile
@<TRIPOS>ATOM
      1 C1         -1.2190    1.7506    0.0173 C.ar      1 <0>        -0.1181
      2 C2         -0.0126    1.0758    0.0080 C.ar      1 <0>        -0.1159
      3 C3          1.1750    1.7832    0.0004 C.ar      1 <0>        -0.1095
      4 C4          1.1563    3.1654    0.0081 C.ar      1 <0>        -0.0810
      5 C5         -0.0501    3.8402    0.0228 C.ar      1 <0>        -0.1146
      6 C6         -1.2377    3.1328    0.0294 C.ar      1 <0>        -0.1163
      7 C7          2.4499    3.9359    0.0009 C.3       1 <0>        -0.0429
      8 H1          3.2917    3.2454    0.0084 H         1 <0>         0.0943
      9 C8          2.5171    4.8414    1.2360 C.3       1 <0>        -0.0938
     10 C9          3.8422    5.5702    1.2488 C.2       1 <0>         0.1998
     11 C10         4.4264    5.8652    0.0608 C.2       1 <0>        -0.2336
     12 C11         5.8346    6.4216    0.0709 C.3       1 <0>         0.0866
     13 H2          5.8080    7.4456   -0.2877 H         1 <0>         0.0907
     14 C12         6.5502    6.3987    1.4062 C.2       1 <0>        -0.1542
     15 C13         5.7973    6.1077    2.5379 C.2       1 <0>         0.3972
     16 N1          4.4414    5.8525    2.4496 N.pl3     1 <0>        -0.4702
     17 C14         3.6945    5.8585    3.6260 C.ar      1 <0>         0.1945
     18 C15         2.3124    5.9409    3.6415 C.ar      1 <0>        -0.1583
     19 C16         1.6162    5.8173    4.8293 C.ar      1 <0>        -0.0524
     20 C17         2.2878    5.6307    6.0265 C.ar      1 <0>        -0.1364
     21 C18         3.6659    5.6265    6.0479 C.ar      1 <0>        -0.0498
     22 C19         4.3747    5.7782    4.8568 C.ar      1 <0>        -0.1625
     23 C20         5.8438    5.8494    4.8509 C.2       1 <0>         0.4949
     24 N2          6.4574    6.0561    3.7049 N.2       1 <0>        -0.5762
     25 N3          6.5627    5.7264    6.0129 N.pl3     1 <0>        -0.8035
     26 C21         7.9538    6.6643    1.4936 C.1       1 <0>         0.2979
     27 N4          9.0680    6.8751    1.5630 N.1       1 <0>        -0.4407
     28 C22         6.6728    5.6105   -0.8833 C.ar      1 <0>        -0.1275
     29 C23         7.2841    6.2167   -1.9705 C.ar      1 <0>        -0.0517
     30 C24         8.0496    5.4321   -2.8191 C.ar      1 <0>        -0.1700
     31 C25         8.1692    4.0794   -2.5608 C.ar      1 <0>         0.0940
     32 N5          7.5695    3.5359   -1.5199 N.ar      1 <0>        -0.4842
     33 C26         6.8374    4.2523   -0.6892 C.ar      1 <0>         0.1104
     34 C27         3.7660    5.6690   -1.1576 C.2       1 <0>         0.4075
     35 O1          4.1740    6.2045   -2.1711 O.2       1 <0>        -0.4480
     36 C28         2.5174    4.8281   -1.2431 C.3       1 <0>        -0.1489
     37 H3         -2.1469    1.1980    0.0188 H         1 <0>         0.1223
     38 H4          0.0021   -0.0041    0.0020 H         1 <0>         0.1235
     39 H5          2.1175    1.2560   -0.0111 H         1 <0>         0.1234
     40 H6         -0.0647    4.9201    0.0295 H         1 <0>         0.1223
     41 H7         -2.1802    3.6600    0.0413 H         1 <0>         0.1235
     42 H8          1.7028    5.5621    1.1746 H         1 <0>         0.1059
     43 H9          2.4249    4.2290    2.1300 H         1 <0>         0.1028
     44 H10         1.7571    6.1545    2.7416 H         1 <0>         0.1488
     45 H11         0.5367    5.8417    4.8191 H         1 <0>         0.1423
     46 H12         1.7351    5.4976    6.9440 H         1 <0>         0.1401
     47 H13         4.1897    5.5063    6.9849 H         1 <0>         0.1377
     48 H14         7.5303    5.7918    5.9938 H         1 <0>         0.4201
     49 H15         6.1034    5.5742    6.8536 H         1 <0>         0.4159
     50 H16         7.1698    7.2756   -2.1495 H         1 <0>         0.1327
     51 H17         8.5430    5.8714   -3.6735 H         1 <0>         0.1342
     52 H18         8.7610    3.4606   -3.2191 H         1 <0>         0.1538
     53 H19         6.3613    3.7720    0.1528 H         1 <0>         0.1433
     54 H20         2.5430    4.2558   -2.0627 H         1 <0>         0.0939
     55 H21         1.6426    5.4753   -1.2799 H         1 <0>         0.1056
@<TRIPOS>BOND
     1    1    6 ar
     2    1    2 ar
     3    1   37 1
     4    2    3 ar
     5    2   38 1
     6    3    4 ar
     7    3   39 1
     8    4    5 ar
     9    4    7 1
    10    5    6 ar
    11    5   40 1
    12    6   41 1
    13    7    8 1
    14    7   36 1
    15    7    9 1
    16    9   10 1
    17    9   42 1
    18    9   43 1
    19   10   16 1
    20   10   11 2
    21   11   12 1
    22   11   34 1
    23   12   13 1
    24   12   14 1
    25   12   28 1
    26   14   15 2
    27   14   26 1
    28   15   24 1
    29   15   16 1
    30   16   17 1
    31   17   22 ar
    32   17   18 ar
    33   18   19 ar
    34   18   44 1
    35   19   20 ar
    36   19   45 1
    37   20   21 ar
    38   20   46 1
    39   21   22 ar
    40   21   47 1
    41   22   23 1
    42   23   24 2
    43   23   25 1
    44   25   48 1
    45   25   49 1
    46   26   27 3
    47   28   33 ar
    48   28   29 ar
    49   29   30 ar
    50   29   50 1
    51   30   31 ar
    52   30   51 1
    53   31   32 ar
    54   31   52 1
    55   32   33 ar
    56   33   53 1
    57   34   35 2
    58   34   36 1
    59   36   54 1
    60   36   55 1
@<TRIPOS>MOLECULE
ZINC24718563
   54    56     0     0     0
SMALL
USER_CHARGES
(3aR,7aR)-3-bromo-1-[(2S)-3,3,4,4,5,5,6,6-octamethyltetrahydropyran-2-yl]-5,7a-dihydro-3aH-pyrazolo[4,5-e]pyrimidin-4-one
@<TRIPOS>ATOM
      1 C1          4.1327   -1.8089    4.2891 C.3       1 <0>        -0.1848
      2 C2          2.7968   -1.3286    4.8677 C.3       1 <0>        -0.0771
      3 C3          1.6545   -1.8151    3.9795 C.3       1 <0>         0.3818
      4 H1          0.6907   -1.3577    4.2478 H         1 <0>         0.1126
      5 O1          1.4993   -3.2224    4.1286 O.3       1 <0>        -0.3990
      6 C4          1.1153   -3.6517    5.4305 C.3       1 <0>         0.1430
      7 C5          2.1310   -3.2135    6.4789 C.3       1 <0>        -0.0699
      8 C6          2.6437   -1.7923    6.3087 C.3       1 <0>        -0.0332
      9 C7          1.7265   -0.8135    7.0605 C.3       1 <0>        -0.1609
     10 C8          4.0347   -1.7098    6.9792 C.3       1 <0>        -0.1498
     11 C9          1.4544   -3.3147    7.8634 C.3       1 <0>        -0.1534
     12 C10         3.3103   -4.1989    6.4767 C.3       1 <0>        -0.1532
     13 C11        -0.2842   -3.1462    5.7796 C.3       1 <0>        -0.1874
     14 C12         1.0706   -5.1937    5.4239 C.3       1 <0>        -0.1470
     15 N1          1.9812   -1.5179    2.5764 N.3       1 <0>        -0.4920
     16 C13         1.1321   -0.9160    1.5564 C.3       1 <0>         0.3919
     17 H2          0.5721   -1.7256    1.0657 H         1 <0>         0.0815
     18 C14         2.2132    0.0188    0.9158 C.2       1 <0>        -0.1967
     19 H3          3.8681   -2.5657    2.2002 H         1 <0>         0.4759
     20 C15         2.3497    1.4060    0.3840 C.2       1 <0>         0.6275
     21 O2          3.3997    2.0123    0.3752 O.2       1 <0>        -0.3557
     22 N2          0.2812    0.8003   -0.2692 N.am      1 <0>        -0.8891
     23 C16        -0.3419    0.7841    0.9642 C.2       1 <0>         0.3475
     24 N3          0.0305   -0.0510    1.9031 N.2       1 <0>        -0.5843
     25 C17         3.3835   -0.9083    0.9112 C.2       1 <0>         0.2289
     26 N4          3.2033   -1.7480    1.8850 N.pl3     1 <0>        -0.4199
     27 Br1         5.1798   -0.4564    1.2918 Br        1 <0>         0.0209
     28 C18         2.7996    0.2119    4.8476 C.3       1 <0>        -0.1430
     29 H4          4.2263   -1.4651    3.2484 H         1 <0>         0.0771
     30 H5          4.1705   -2.9079    4.3171 H         1 <0>         0.0631
     31 H6          4.9599   -1.3982    4.8867 H         1 <0>         0.0717
     32 H7          1.6129   -1.1449    8.1032 H         1 <0>         0.0666
     33 H8          0.7402   -0.7883    6.5742 H         1 <0>         0.0565
     34 H9          2.1704    0.1928    7.0418 H         1 <0>         0.0640
     35 H10         3.9574   -2.0397    8.0257 H         1 <0>         0.0569
     36 H11         4.3958   -0.6713    6.9478 H         1 <0>         0.0547
     37 H12         4.7403   -2.3599    6.4410 H         1 <0>         0.0657
     38 H13         2.1657   -3.0037    8.6427 H         1 <0>         0.0594
     39 H14         1.1434   -4.3542    8.0444 H         1 <0>         0.0567
     40 H15         0.5721   -2.6583    7.8891 H         1 <0>         0.0688
     41 H16         4.0482   -3.8891    7.2314 H         1 <0>         0.0637
     42 H17         3.7820   -4.2039    5.4830 H         1 <0>         0.0579
     43 H18         2.9447   -5.2088    6.7142 H         1 <0>         0.0613
     44 H19        -0.5573   -3.4903    6.7881 H         1 <0>         0.0782
     45 H20        -1.0081   -3.5378    5.0499 H         1 <0>         0.0655
     46 H21        -0.2942   -2.0465    5.7522 H         1 <0>         0.0620
     47 H22         0.7758   -5.5562    6.4197 H         1 <0>         0.0727
     48 H23         2.0654   -5.5883    5.1696 H         1 <0>         0.0684
     49 H24         0.3387   -5.5361    4.6775 H         1 <0>         0.0611
     50 H25        -0.2881    0.5490   -1.1763 H         1 <0>         0.3402
     51 H26        -1.1648    1.4899    1.1507 H         1 <0>         0.1107
     52 H27         1.8501    0.5857    5.2584 H         1 <0>         0.0640
     53 H28         2.9154    0.5649    3.8122 H         1 <0>         0.0595
     54 H29         3.6353    0.5850    5.4578 H         1 <0>         0.0584
@<TRIPOS>BOND
     1    1    2 1
     2    1   29 1
     3    1   30 1
     4    1   31 1
     5    2    8 1
     6    2    3 1
     7    2   28 1
     8    3    4 1
     9    3    5 1
    10    3   15 1
    11    5    6 1
    12    6    7 1
    13    6   13 1
    14    6   14 1
    15    7    8 1
    16    7   11 1
    17    7   12 1
    18    8    9 1
    19    8   10 1
    20    9   32 1
    21    9   33 1
    22    9   34 1
    23   10   35 1
    24   10   36 1
    25   10   37 1
    26   11   38 1
    27   11   39 1
    28   11   40 1
    29   12   41 1
    30   12   42 1
    31   12   43 1
    32   13   44 1
    33   13   45 1
    34   13   46 1
    35   14   47 1
    36   14   48 1
    37   14   49 1
    38   15   16 1
    39   15   26 1
    40   16   17 1
    41   16   24 1
    42   16   18 1
    43   18   20 1
    44   18   25 2
    45   19   26 1
    46   20   21 2
    47   20   22 am
    48   22   23 1
    49   22   50 1
    50   23   24 2
    51   23   51 1
    52   25   27 1
    53   25   26 1
    54   28   52 1
    55   28   53 1
    56   28   54 1
@<TRIPOS>MOLECULE
ZINC39453992
   32    35     0     0     0
SMALL
USER_CHARGES

@<TRIPOS>ATOM
      1 C1         -0.0168    1.3859    0.0097 C.ar      1 <0>        -0.0622
      2 C2          1.1294    2.1207    0.0027 C.ar      1 <0>        -0.1070
      3 C3          2.3766    1.4726   -0.0115 C.ar      1 <0>         0.1743
      4 C4          2.4062    0.0077   -0.0197 C.ar      1 <0>        -0.1377
      5 C5          3.6452   -0.6465   -0.0350 C.ar      1 <0>         0.0405
      6 C6          4.7908    0.1374   -0.0391 C.ar      1 <0>        -0.1697
      7 C7          4.6896    1.5538   -0.0281 C.ar      1 <0>         0.2054
      8 N1          3.5178    2.1619   -0.0161 N.ar      1 <0>        -0.4564
      9 C8          5.9387    2.3349   -0.0283 C.2       1 <0>         0.2404
     10 C9          7.1567    1.6852   -0.0438 C.2       1 <0>        -0.0358
     11 N2          7.2265    0.2963   -0.0547 N.am      1 <0>        -0.5618
     12 C10         6.1272   -0.4775   -0.0534 C.2       1 <0>         0.5576
     13 O1          6.2378   -1.6896   -0.0641 O.2       1 <0>        -0.4897
     14 I1          9.0691   -0.6020   -0.0734 I         1 <0>         0.2972
     15 C11         8.3541    2.4370   -0.0538 C.2       1 <0>         0.3920
     16 O2          9.4245    1.8637   -0.0187 O.2       1 <0>        -0.4172
     17 C12         8.3154    3.9418   -0.1072 C.3       1 <0>        -0.1732
     18 C13         7.0348    4.4416    0.5709 C.3       1 <0>         0.2241
     19 H1          6.9183    5.5108    0.3940 H         1 <0>         0.1458
     20 N3          5.8942    3.7156   -0.0089 N.pl3     1 <0>        -0.6982
     21 Cl1         7.1215    4.1243    2.3436 Cl        1 <0>        -0.1741
     22 C14         1.1891   -0.7039   -0.0116 C.ar      1 <0>         0.1487
     23 C15         0.0021   -0.0041    0.0020 C.ar      1 <0>        -0.1427
     24 O3          1.1866   -2.0609   -0.0185 O.3       1 <0>        -0.4871
     25 H2         -0.9678    1.8975    0.0261 H         1 <0>         0.1421
     26 H3          1.0803    3.1996    0.0077 H         1 <0>         0.1463
     27 H4          3.7068   -1.7247   -0.0429 H         1 <0>         0.1663
     28 H5          9.1838    4.3466    0.4126 H         1 <0>         0.1297
     29 H6          8.3281    4.2693   -1.1467 H         1 <0>         0.1311
     30 H7          5.1305    4.1939   -0.3680 H         1 <0>         0.4292
     31 H8         -0.9320   -0.5462    0.0076 H         1 <0>         0.1418
     32 H9          1.1944   -2.4587    0.8629 H         1 <0>         0.4005
@<TRIPOS>BOND
     1    1   23 ar
     2    1    2 ar
     3    1   25 1
     4    2    3 ar
     5    2   26 1
     6    3    8 ar
     7    3    4 ar
     8    4    5 ar
     9    4   22 ar
    10    5    6 ar
    11    5   27 1
    12    6   12 1
    13    6    7 ar
    14    7    8 ar
    15    7    9 1
    16    9   20 1
    17    9   10 2
    18   10   11 1
    19   10   15 1
    20   11   12 am
    21   11   14 1
    22   12   13 2
    23   15   16 2
    24   15   17 1
    25   17   18 1
    26   17   28 1
    27   17   29 1
    28   18   19 1
    29   18   20 1
    30   18   21 1
    31   20   30 1
    32   22   23 ar
    33   22   24 1
    34   23   31 1
    35   24   32 1
@<TRIPOS>MOLECULE
ZINC48314701
   44    46     0     0     0
SMALL
USER_CHARGES

@<TRIPOS>ATOM
      1 C1         -0.0130    1.5061    0.0260 C.3       1 <0>        -0.1616
      2 C2         -0.0018   -0.0238    0.0072 C.3       1 <0>         0.2067
      3 H1         -1.0267   -0.3947    0.0093 H         1 <0>         0.1039
      4 C3          0.7204   -0.5358    1.2267 C.ar      1 <0>        -0.1040
      5 C4          2.1026   -0.5545    1.2530 C.ar      1 <0>        -0.0828
      6 C5          2.7681   -1.0237    2.3694 C.ar      1 <0>        -0.1770
      7 C6          2.0490   -1.4762    3.4653 C.ar      1 <0>         0.0997
      8 C7          0.6604   -1.4564    3.4377 C.ar      1 <0>         0.0757
      9 C8         -0.0005   -0.9808    2.3194 C.ar      1 <0>        -0.1007
     10 F1         -0.0438   -1.8964    4.5034 F         1 <0>        -0.1282
     11 O1          2.7019   -1.9387    4.5645 O.3       1 <0>        -0.3082
     12 C9          4.1302   -1.9300    4.5222 C.3       1 <0>         0.0248
     13 N1          0.6846   -0.4923   -1.1994 N.am      1 <0>        -0.7331
     14 C10         0.0056   -0.6118   -2.3574 C.2       1 <0>         0.7083
     15 O2         -1.1766   -0.3308   -2.4009 O.2       1 <0>        -0.5616
     16 N2          0.6370   -1.0428   -3.4674 N.am      1 <0>        -0.6782
     17 C11        -0.0919   -1.2799   -4.6410 C.ar      1 <0>         0.2070
     18 C12        -1.4451   -1.5788   -4.5695 C.ar      1 <0>        -0.1233
     19 C13        -2.1662   -1.8130   -5.7300 C.ar      1 <0>         0.0935
     20 C14        -1.5321   -1.7459   -6.9653 C.ar      1 <0>         0.0354
     21 C15        -0.1794   -1.4483   -7.0336 C.ar      1 <0>        -0.0611
     22 C16         0.5384   -1.2102   -5.8764 C.ar      1 <0>        -0.1275
     23 Br1         2.3811   -0.7972   -5.9754 Br        1 <0>        -0.0344
     24 O3         -2.2258   -1.9652   -8.1168 O.3       1 <0>        -0.3030
     25 C17        -3.4898   -2.6255   -7.9909 C.3       1 <0>         0.0201
     26 C18        -4.2634   -1.9672   -6.8405 C.3       1 <0>         0.0185
     27 O4         -3.4921   -2.1091   -5.6428 O.3       1 <0>        -0.2989
     28 H2          1.0119    1.8770    0.0238 H         1 <0>         0.0603
     29 H3         -0.5354    1.8764   -0.8562 H         1 <0>         0.0694
     30 H4         -0.5237    1.8546    0.9236 H         1 <0>         0.0719
     31 H5          2.6630   -0.2022    0.3997 H         1 <0>         0.1312
     32 H6          3.8479   -1.0384    2.3883 H         1 <0>         0.1414
     33 H7         -1.0801   -0.9607    2.2982 H         1 <0>         0.1476
     34 H8          4.4833   -0.9087    4.3800 H         1 <0>         0.0594
     35 H9          4.5238   -2.3234    5.4595 H         1 <0>         0.1056
     36 H10         4.4730   -2.5515    3.6949 H         1 <0>         0.0591
     37 H11         1.6277   -0.7165   -1.1647 H         1 <0>         0.3980
     38 H12         1.5959   -1.1889   -3.4541 H         1 <0>         0.4114
     39 H13        -1.9367   -1.6293   -3.6091 H         1 <0>         0.1700
     40 H14         0.3134   -1.3983   -7.9933 H         1 <0>         0.1499
     41 H15        -4.0525   -2.5223   -8.9187 H         1 <0>         0.1260
     42 H16        -3.3326   -3.6815   -7.7713 H         1 <0>         0.0801
     43 H17        -4.4148   -0.9097   -7.0571 H         1 <0>         0.0818
     44 H18        -5.2280   -2.4595   -6.7171 H         1 <0>         0.1266
@<TRIPOS>BOND
     1    1    2 1
     2    1   28 1
     3    1   29 1
     4    1   30 1
     5    2    3 1
     6    2    4 1
     7    2   13 1
     8    4    9 ar
     9    4    5 ar
    10    5    6 ar
    11    5   31 1
    12    6    7 ar
    13    6   32 1
    14    7    8 ar
    15    7   11 1
    16    8    9 ar
    17    8   10 1
    18    9   33 1
    19   11   12 1
    20   12   34 1
    21   12   35 1
    22   12   36 1
    23   13   14 am
    24   13   37 1
    25   14   15 2
    26   14   16 am
    27   16   17 1
    28   16   38 1
    29   17   22 ar
    30   17   18 ar
    31   18   19 ar
    32   18   39 1
    33   19   27 1
    34   19   20 ar
    35   20   21 ar
    36   20   24 1
    37   21   22 ar
    38   21   40 1
    39   22   23 1
    40   24   25 1
    41   25   26 1
    42   25   41 1
    43   25   42 1
    44   26   27 1
    45   26   43 1
    46   26   44 1
@<TRIPOS>MOLECULE
ZINC20611693
   55    59     0     0     0
SMALL
USER_CHARGES

@<TRIPOS>ATOM
      1 C1          0.7337   -0.3039   -1.1652 C.3       1 <0>        -0.1506
      2 C2         -0.0878    0.0729    0.0694 C.3       1 <0>        -0.0947
      3 C3         -0.1573    1.5965    0.1902 C.3       1 <0>        -0.1450
      4 C4         -1.5027   -0.4929   -0.0673 C.3       1 <0>        -0.1089
      5 C5         -1.4445   -2.0217   -0.0503 C.3       1 <0>         0.0805
      6 H1         -0.7833   -2.3841   -0.8374 H         1 <0>         0.0801
      7 C6         -2.8589   -2.6148   -0.2221 C.3       1 <0>        -0.1258
      8 H2         -3.0877   -2.8590   -1.2594 H         1 <0>         0.1408
      9 C7         -2.8866   -3.8583    0.7101 C.3       1 <0>        -0.1064
     10 H3         -3.1355   -4.7785    0.1814 H         1 <0>         0.1410
     11 C8         -3.9177   -3.4879    1.7526 C.2       1 <0>         0.5422
     12 O1         -4.2570   -4.1886    2.6818 O.2       1 <0>        -0.4550
     13 N1         -4.3966   -2.2664    1.4905 N.am      1 <0>        -0.5606
     14 C9         -3.8722   -1.6762    0.3920 C.2       1 <0>         0.5422
     15 O2         -4.1586   -0.5783   -0.0346 O.2       1 <0>        -0.4500
     16 C10        -5.4146   -1.6195    2.3220 C.3       1 <0>         0.1413
     17 C11        -4.7527   -0.9602    3.5045 C.ar      1 <0>        -0.1078
     18 C12        -4.6685   -1.6292    4.7113 C.ar      1 <0>        -0.0663
     19 C13        -4.0614   -1.0247    5.7960 C.ar      1 <0>        -0.1169
     20 C14        -3.5380    0.2493    5.6747 C.ar      1 <0>        -0.0973
     21 C15        -3.6216    0.9190    4.4688 C.ar      1 <0>        -0.1183
     22 C16        -4.2242    0.3122    3.3810 C.ar      1 <0>        -0.0218
     23 Cl1        -4.3238    1.1503    1.8640 Cl        1 <0>        -0.0436
     24 C17        -1.4884   -3.8986    1.3392 C.3       1 <0>         0.1232
     25 N2         -0.9825   -2.5070    1.2774 N.3       1 <0>        -0.6183
     26 C18        -0.5900   -4.8643    0.6200 C.ar      1 <0>        -0.1797
     27 C19        -0.1485   -4.9592   -0.6809 C.ar      1 <0>        -0.0538
     28 C20         0.6956   -5.9908   -1.0520 C.ar      1 <0>        -0.1419
     29 C21         1.0942   -6.9250   -0.1133 C.ar      1 <0>        -0.0705
     30 C22         0.6553   -6.8331    1.1911 C.ar      1 <0>        -0.1416
     31 C23        -0.1942   -5.7977    1.5735 C.ar      1 <0>         0.1639
     32 N3         -0.7636   -5.4938    2.8120 N.am      1 <0>        -0.6652
     33 C24        -1.5367   -4.3917    2.7590 C.2       1 <0>         0.5436
     34 O3         -2.1522   -3.8940    3.6780 O.2       1 <0>        -0.4436
     35 H4          1.7417    0.0993   -1.0677 H         1 <0>         0.0547
     36 H5          0.7832   -1.3893   -1.2513 H         1 <0>         0.0507
     37 H6          0.2613    0.1101   -2.0560 H         1 <0>         0.0566
     38 H7          0.3845   -0.3411    0.9603 H         1 <0>         0.0699
     39 H8         -0.5482    2.0170   -0.7363 H         1 <0>         0.0542
     40 H9         -0.8145    1.8658    1.0171 H         1 <0>         0.0552
     41 H10         0.8412    1.9922    0.3760 H         1 <0>         0.0530
     42 H11        -2.1157   -0.1434    0.7634 H         1 <0>         0.0842
     43 H12        -1.9393   -0.1565   -1.0077 H         1 <0>         0.0800
     44 H13        -5.9399   -0.8671    1.7336 H         1 <0>         0.1084
     45 H14        -6.1254   -2.3672    2.6737 H         1 <0>         0.1007
     46 H15        -5.0774   -2.6242    4.8067 H         1 <0>         0.1325
     47 H16        -3.9961   -1.5476    6.7387 H         1 <0>         0.1275
     48 H17        -3.0641    0.7212    6.5227 H         1 <0>         0.1300
     49 H18        -3.2131    1.9143    4.3743 H         1 <0>         0.1314
     50 H19         0.0244   -2.4883    1.3389 H         1 <0>         0.3543
     51 H20        -0.4615   -4.2284   -1.4118 H         1 <0>         0.1276
     52 H21         1.0419   -6.0664   -2.0721 H         1 <0>         0.1330
     53 H22         1.7523   -7.7308   -0.4032 H         1 <0>         0.1342
     54 H23         0.9710   -7.5666    1.9182 H         1 <0>         0.1296
     55 H24        -0.6193   -6.0156    3.6169 H         1 <0>         0.4171
@<TRIPOS>BOND
     1    1    2 1
     2    1   35 1
     3    1   36 1
     4    1   37 1
     5    2    3 1
     6    2    4 1
     7    2   38 1
     8    3   39 1
     9    3   40 1
    10    3   41 1
    11    4    5 1
    12    4   42 1
    13    4   43 1
    14    5    6 1
    15    5   25 1
    16    5    7 1
    17    7    8 1
    18    7   14 1
    19    7    9 1
    20    9   10 1
    21    9   11 1
    22    9   24 1
    23   11   12 2
    24   11   13 am
    25   13   14 am
    26   13   16 1
    27   14   15 2
    28   16   17 1
    29   16   44 1
    30   16   45 1
    31   17   22 ar
    32   17   18 ar
    33   18   19 ar
    34   18   46 1
    35   19   20 ar
    36   19   47 1
    37   20   21 ar
    38   20   48 1
    39   21   22 ar
    40   21   49 1
    41   22   23 1
    42   24   33 1
    43   24   25 1
    44   24   26 1
    45   25   50 1
    46   26   31 ar
    47   26   27 ar
    48   27   28 ar
    49   27   51 1
    50   28   29 ar
    51   28   52 1
    52   29   30 ar
    53   29   53 1
    54   30   31 ar
    55   30   54 1
    56   31   32 1
    57   32   33 am
    58   32   55 1
    59   33   34 2
@<TRIPOS>MOLECULE
ZINC20396765
   39    41     0     0     0
SMALL
USER_CHARGES
3-(2-aminoethylsulfanyl)-5-(1-naphthylmethyl)-1,2,4-triazol-4-amine
@<TRIPOS>ATOM
      1 C1          0.1005    5.6647    3.5799 C.ar      1 <0>        -0.1117
      2 C2          0.4849    5.4167    2.2633 C.ar      1 <0>        -0.1102
      3 C3         -0.0708    4.3990    1.5508 C.ar      1 <0>        -0.1021
      4 C4         -1.0470    3.5836    2.1487 C.ar      1 <0>        -0.0386
      5 C5         -1.4376    3.8356    3.4878 C.ar      1 <0>        -0.0519
      6 C6         -0.8415    4.8962    4.1914 C.ar      1 <0>        -0.1081
      7 C7         -2.4139    3.0209    4.0854 C.ar      1 <0>        -0.0945
      8 C8         -2.9701    2.0032    3.3728 C.ar      1 <0>        -0.1206
      9 C9         -2.5909    1.7596    2.0543 C.ar      1 <0>        -0.1040
     10 C10        -1.6439    2.5242    1.4448 C.ar      1 <0>        -0.0815
     11 C11        -1.2424    2.2398    0.0204 C.3       1 <0>         0.0033
     12 C12        -0.0165    1.3634    0.0095 C.2       1 <0>         0.1874
     13 N1          1.2220    1.7681   -0.0001 N.2       1 <0>        -0.2578
     14 N2          2.0163    0.7578   -0.0131 N.2       1 <0>        -0.2789
     15 C13         1.3213   -0.3559   -0.0125 C.2       1 <0>         0.1062
     16 N3          0.0021   -0.0041    0.0020 N.pl3     1 <0>        -0.2029
     17 N4         -1.0755   -0.8436    0.0078 N.3       1 <0>        -0.7624
     18 S1          1.9684   -1.9948   -0.0269 S.3       1 <0>         0.0473
     19 C14         3.7416   -1.6324   -0.0422 C.3       1 <0>        -0.1601
     20 C15         4.5300   -2.9435   -0.0564 C.3       1 <0>         0.0152
     21 N5          5.9692   -2.6494   -0.0688 N.4       1 <0>        -0.6825
     22 H1          0.5568    6.4793    4.1227 H         1 <0>         0.1256
     23 H2          1.2348    6.0418    1.8014 H         1 <0>         0.1254
     24 H3          0.2370    4.2188    0.5314 H         1 <0>         0.1324
     25 H4         -1.1296    5.1004    5.2121 H         1 <0>         0.1290
     26 H5         -2.7211    3.2010    5.1050 H         1 <0>         0.1301
     27 H6         -3.7204    1.3784    3.8346 H         1 <0>         0.1264
     28 H7         -3.0514    0.9487    1.5096 H         1 <0>         0.1173
     29 H8         -2.0656    1.7252   -0.4968 H         1 <0>         0.0969
     30 H9         -1.0210    3.1865   -0.4941 H         1 <0>         0.1197
     31 H10        -0.9240   -1.9331    0.0005 H         1 <0>         0.4479
     32 H11        -2.0948   -0.4301    0.0198 H         1 <0>         0.4525
     33 H12         3.9883   -1.0464   -0.9398 H         1 <0>         0.1211
     34 H13         4.0057   -1.0554    0.8563 H         1 <0>         0.1207
     35 H14         4.2832   -3.5295    0.8412 H         1 <0>         0.1391
     36 H15         4.2659   -3.5205   -0.9549 H         1 <0>         0.1394
     37 H16         6.5360   -3.5921   -0.0790 H         1 <0>         0.4651
     38 H17         6.2333   -2.0725    0.8298 H         1 <0>         0.4600
     39 H18         6.2160   -2.0634   -0.9664 H         1 <0>         0.4600
@<TRIPOS>BOND
     1    1    6 ar
     2    1    2 ar
     3    1   22 1
     4    2    3 ar
     5    2   23 1
     6    3    4 ar
     7    3   24 1
     8    4   10 ar
     9    4    5 ar
    10    5    6 ar
    11    5    7 ar
    12    6   25 1
    13    7    8 ar
    14    7   26 1
    15    8    9 ar
    16    8   27 1
    17    9   10 ar
    18    9   28 1
    19   10   11 1
    20   11   12 1
    21   11   29 1
    22   11   30 1
    23   12   16 1
    24   12   13 2
    25   13   14 1
    26   14   15 2
    27   15   16 1
    28   15   18 1
    29   16   17 1
    30   17   31 1
    31   17   32 1
    32   18   19 1
    33   19   20 1
    34   19   33 1
    35   19   34 1
    36   20   21 1
    37   20   35 1
    38   20   36 1
    39   21   37 1
    40   21   38 1
    41   21   39 1
@<TRIPOS>MOLECULE
ZINC39532838
   46    47     0     0     0
SMALL
USER_CHARGES

@<TRIPOS>ATOM
      1 C1          0.1787    1.4254    0.9801 C.3       1 <0>        -0.1564
      2 C2          0.1399   -0.1015    0.8905 C.3       1 <0>        -0.1169
      3 C3         -1.2085   -0.5448    0.3196 C.3       1 <0>        -0.0889
      4 C4         -1.2467   -2.0488    0.2314 C.ar      1 <0>        -0.0662
      5 C5         -0.8077   -2.6853   -0.9145 C.ar      1 <0>        -0.1104
      6 C6         -0.8427   -4.0648   -0.9954 C.ar      1 <0>        -0.1057
      7 C7         -1.3164   -4.8078    0.0697 C.ar      1 <0>        -0.0955
      8 C8         -1.7546   -4.1714    1.2159 C.ar      1 <0>        -0.1040
      9 C9         -1.7156   -2.7920    1.2984 C.ar      1 <0>        -0.1181
     10 C10        -1.3555   -6.3117   -0.0189 C.3       1 <0>         0.1449
     11 H1         -1.8301   -6.6084   -0.9542 H         1 <0>         0.1049
     12 C11         0.0712   -6.8625    0.0261 C.3       1 <0>         0.0123
     13 N1          0.0318   -8.3297   -0.0351 N.3       1 <0>        -0.5182
     14 O1          1.3816   -8.8926    0.0059 O.3       1 <0>        -0.4188
     15 N2         -2.1238   -6.8491    1.1120 N.3       1 <0>        -0.5190
     16 C12        -1.3230   -6.8401    2.3444 C.3       1 <0>        -0.0022
     17 C13        -2.1767   -7.3502    3.5075 C.3       1 <0>         0.0027
     18 N3         -2.6401   -8.7128    3.2142 N.4       1 <0>        -0.5331
     19 C14        -3.4585   -8.7016    1.9946 C.3       1 <0>         0.2254
     20 H2         -4.3125   -8.0392    2.1362 H         1 <0>         0.1403
     21 C15        -2.6156   -8.2027    0.8189 C.3       1 <0>         0.0191
     22 O2         -3.9226  -10.0250    1.7202 O.3       1 <0>        -0.5289
     23 H3          1.1394    1.7412    1.3868 H         1 <0>         0.0579
     24 H4          0.0477    1.8511   -0.0147 H         1 <0>         0.0566
     25 H5         -0.6233    1.7716    1.6320 H         1 <0>         0.0559
     26 H6          0.9420   -0.4477    0.2386 H         1 <0>         0.0628
     27 H7          0.2710   -0.5273    1.8853 H         1 <0>         0.0617
     28 H8         -2.0106   -0.1986    0.9715 H         1 <0>         0.0751
     29 H9         -1.3396   -0.1191   -0.6752 H         1 <0>         0.0758
     30 H10        -0.4376   -2.1048   -1.7466 H         1 <0>         0.1267
     31 H11        -0.5003   -4.5621   -1.8909 H         1 <0>         0.1218
     32 H12        -2.1250   -4.7519    2.0479 H         1 <0>         0.1303
     33 H13        -2.0545   -2.2949    2.1954 H         1 <0>         0.1241
     34 H14         0.6360   -6.4785   -0.8234 H         1 <0>         0.0668
     35 H15         0.5521   -6.5504    0.9532 H         1 <0>         0.0973
     36 H16        -0.4664   -8.6442   -0.8542 H         1 <0>         0.3379
     37 H17         1.4062   -9.8586   -0.0320 H         1 <0>         0.3908
     38 H18        -0.4551   -7.4875    2.2190 H         1 <0>         0.0865
     39 H19        -0.9914   -5.8234    2.5552 H         1 <0>         0.1329
     40 H20        -1.5803   -7.3578    4.4199 H         1 <0>         0.1430
     41 H21        -3.0372   -6.6947    3.6414 H         1 <0>         0.1394
     42 H22        -1.8433   -9.3169    3.0788 H         1 <0>         0.4295
     43 H23        -3.2269   -8.1802   -0.0832 H         1 <0>         0.1242
     44 H24        -1.7689   -8.8726    0.6683 H         1 <0>         0.1018
     45 H25        -4.4651  -10.4055    2.4244 H         1 <0>         0.4066
     46 H26        -3.1926   -9.0536    3.9867 H         1 <0>         0.4272
@<TRIPOS>BOND
     1    1    2 1
     2    1   23 1
     3    1   24 1
     4    1   25 1
     5    2    3 1
     6    2   26 1
     7    2   27 1
     8    3    4 1
     9    3   28 1
    10    3   29 1
    11    4    9 ar
    12    4    5 ar
    13    5    6 ar
    14    5   30 1
    15    6    7 ar
    16    6   31 1
    17    7    8 ar
    18    7   10 1
    19    8    9 ar
    20    8   32 1
    21    9   33 1
    22   10   11 1
    23   10   12 1
    24   10   15 1
    25   12   13 1
    26   12   34 1
    27   12   35 1
    28   13   14 1
    29   13   36 1
    30   14   37 1
    31   15   21 1
    32   15   16 1
    33   16   17 1
    34   16   38 1
    35   16   39 1
    36   17   18 1
    37   17   40 1
    38   17   41 1
    39   18   19 1
    40   18   42 1
    41   18   46 1
    42   19   20 1
    43   19   21 1
    44   19   22 1
    45   21   43 1
    46   21   44 1
    47   22   45 1
@<TRIPOS>MOLECULE
ZINC43342963
   41    42     0     0     0
SMALL
USER_CHARGES

@<TRIPOS>ATOM
      1 C1          0.1791    1.6539    0.6642 C.3       1 <0>        -0.1696
      2 C2          0.1002    0.1496    0.3964 C.3       1 <0>        -0.1543
      3 C3          0.8572   -0.6038    1.4920 C.3       1 <0>         0.0180
      4 H1          0.4667   -0.3150    2.4678 H         1 <0>         0.1517
      5 C4          0.6742   -2.1100    1.2949 C.3       1 <0>         0.1206
      6 H2          1.0647   -2.3988    0.3191 H         1 <0>         0.1190
      7 C5          1.4198   -2.8521    2.3740 C.ar      1 <0>         0.0832
      8 C6          0.7488   -3.7694    3.1608 C.ar      1 <0>        -0.1214
      9 C7          1.4439   -4.4467    4.1507 C.ar      1 <0>        -0.0566
     10 C8          2.7940   -4.1747    4.3130 C.ar      1 <0>        -0.1477
     11 C9          3.3973   -3.2444    3.4885 C.ar      1 <0>         0.1127
     12 N1          2.7058   -2.6228    2.5532 N.ar      1 <0>        -0.5253
     13 O1         -0.7156   -2.4344    1.3668 O.3       1 <0>        -0.2489
     14 C10        -1.3835   -2.5467    0.1914 C.ar      1 <0>         0.1650
     15 C11        -0.7108   -2.3824   -1.0105 C.ar      1 <0>        -0.2236
     16 C12        -1.3920   -2.4964   -2.2059 C.ar      1 <0>        -0.0454
     17 C13        -2.7491   -2.7751   -2.2155 C.ar      1 <0>        -0.1479
     18 C14        -3.4330   -2.9418   -1.0310 C.ar      1 <0>        -0.0429
     19 C15        -2.7549   -2.8348    0.1858 C.ar      1 <0>        -0.1611
     20 C16        -3.4798   -3.0177    1.4577 C.2       1 <0>         0.5637
     21 O2         -2.8873   -2.9185    2.5148 O.2       1 <0>        -0.5271
     22 N2         -4.7988   -3.2947    1.4478 N.am      1 <0>        -0.8491
     23 N3          2.2859   -0.2703    1.4180 N.4       1 <0>        -0.6276
     24 H3          1.2228    1.9683    0.6667 H         1 <0>         0.0545
     25 H4         -0.3602    2.1906   -0.1163 H         1 <0>         0.0857
     26 H5         -0.2691    1.8745    1.6329 H         1 <0>         0.0738
     27 H6         -0.9434   -0.1648    0.3939 H         1 <0>         0.1133
     28 H7          0.5485   -0.0710   -0.5724 H         1 <0>         0.0921
     29 H8         -0.3037   -3.9559    3.0065 H         1 <0>         0.1582
     30 H9          0.9457   -5.1686    4.7807 H         1 <0>         0.1491
     31 H10         3.3666   -4.6835    5.0744 H         1 <0>         0.1503
     32 H11         4.4484   -3.0269    3.6085 H         1 <0>         0.1733
     33 H12         0.3470   -2.1646   -1.0111 H         1 <0>         0.1339
     34 H13        -0.8638   -2.3673   -3.1391 H         1 <0>         0.1383
     35 H14        -3.2734   -2.8617   -3.1557 H         1 <0>         0.1404
     36 H15        -4.4909   -3.1585   -1.0433 H         1 <0>         0.1410
     37 H16        -5.2714   -3.3738    0.6045 H         1 <0>         0.4018
     38 H17        -5.2754   -3.4149    2.2841 H         1 <0>         0.4105
     39 H18         2.4066    0.7230    1.5480 H         1 <0>         0.4315
     40 H19         2.7851   -0.7672    2.1406 H         1 <0>         0.4383
     41 H20         2.6474   -0.5377    0.5147 H         1 <0>         0.4288
@<TRIPOS>BOND
     1    1    2 1
     2    1   24 1
     3    1   25 1
     4    1   26 1
     5    2    3 1
     6    2   27 1
     7    2   28 1
     8    3    4 1
     9    3    5 1
    10    3   23 1
    11    5    6 1
    12    5    7 1
    13    5   13 1
    14    7   12 ar
    15    7    8 ar
    16    8    9 ar
    17    8   29 1
    18    9   10 ar
    19    9   30 1
    20   10   11 ar
    21   10   31 1
    22   11   12 ar
    23   11   32 1
    24   13   14 1
    25   14   19 ar
    26   14   15 ar
    27   15   16 ar
    28   15   33 1
    29   16   17 ar
    30   16   34 1
    31   17   18 ar
    32   17   35 1
    33   18   19 ar
    34   18   36 1
    35   19   20 1
    36   20   21 2
    37   20   22 am
    38   22   37 1
    39   22   38 1
    40   23   39 1
    41   23   40 1
    42   23   41 1
@<TRIPOS>MOLECULE
ZINC52094295
   35    37     0     0     0
SMALL
USER_CHARGES

@<TRIPOS>ATOM
      1 C1          0.7948    1.4381   -1.2076 C.ar      1 <0>        -0.0683
      2 C2          1.0497    2.0895   -0.0164 C.ar      1 <0>        -0.1222
      3 C3          1.2126    1.3668    1.1536 C.ar      1 <0>        -0.0778
      4 C4          1.1215   -0.0123    1.1388 C.ar      1 <0>        -0.0669
      5 C5          0.8661   -0.6741   -0.0521 C.ar      1 <0>         0.1326
      6 C6          0.7018    0.0552   -1.2318 C.ar      1 <0>         0.1143
      7 N1          0.4611   -0.8691   -2.2461 N.am      1 <0>        -0.6364
      8 H1          0.3074   -0.6593   -3.1806 H         1 <0>         0.4449
      9 C7          0.4782   -2.1032   -1.7080 C.2       1 <0>         0.6867
     10 O1          0.3014   -3.1382   -2.3230 O.2       1 <0>        -0.5192
     11 N2          0.7200   -2.0183   -0.3863 N.am      1 <0>        -0.6349
     12 H2          0.7825   -2.7661    0.2284 H         1 <0>         0.4467
     13 Br1         1.5618    2.2703    2.7777 Br        1 <0>        -0.0169
     14 C8          1.1514    3.5929    0.0099 C.3       1 <0>         0.0822
     15 H3          1.9858    3.8896    0.6453 H         1 <0>         0.1564
     16 C9          1.3816    4.1134   -1.4103 C.3       1 <0>        -0.1147
     17 C10         2.7233    3.5830   -1.9565 C.3       1 <0>        -0.1156
     18 C11         3.2896    4.7632   -2.7844 C.3       1 <0>        -0.1286
     19 C12         2.8905    5.9973   -1.9377 C.3       1 <0>        -0.1268
     20 C13         1.4879    5.6484   -1.3984 C.3       1 <0>        -0.1365
     21 N3         -0.0952    4.1587    0.5427 N.4       1 <0>        -0.6368
     22 H4          0.6639    2.0052   -2.1173 H         1 <0>         0.1567
     23 H5          1.2495   -0.5730    2.0530 H         1 <0>         0.1570
     24 H6          0.5637    3.8008   -2.0595 H         1 <0>         0.1041
     25 H7          3.3972    3.3340   -1.1367 H         1 <0>         0.0804
     26 H8          2.5591    2.7141   -2.5938 H         1 <0>         0.0804
     27 H9          4.3736    4.6889   -2.8717 H         1 <0>         0.0796
     28 H10         2.8236    4.8032   -3.7689 H         1 <0>         0.0753
     29 H11         3.5914    6.1382   -1.1149 H         1 <0>         0.0739
     30 H12         2.8482    6.8903   -2.5612 H         1 <0>         0.0780
     31 H13         0.7221    6.0807   -2.0424 H         1 <0>         0.0863
     32 H14         1.3754    6.0225   -0.3808 H         1 <0>         0.0633
     33 H15        -0.0272    5.1653    0.5603 H         1 <0>         0.4371
     34 H16        -0.8676    3.8841   -0.0456 H         1 <0>         0.4353
     35 H17        -0.2471    3.8154    1.4792 H         1 <0>         0.4305
@<TRIPOS>BOND
     1    1    6 ar
     2    1    2 ar
     3    1   22 1
     4    2    3 ar
     5    2   14 1
     6    3    4 ar
     7    3   13 1
     8    4    5 ar
     9    4   23 1
    10    5   11 1
    11    5    6 ar
    12    6    7 1
    13    7    8 1
    14    7    9 am
    15    9   10 2
    16    9   11 am
    17   11   12 1
    18   14   15 1
    19   14   16 1
    20   14   21 1
    21   16   20 1
    22   16   17 1
    23   16   24 1
    24   17   18 1
    25   17   25 1
    26   17   26 1
    27   18   19 1
    28   18   27 1
    29   18   28 1
    30   19   20 1
    31   19   29 1
    32   19   30 1
    33   20   31 1
    34   20   32 1
    35   21   33 1
    36   21   34 1
    37   21   35 1
@<TRIPOS>MOLECULE
ZINC61271323
   41    41     0     0     0
SMALL
USER_CHARGES

@<TRIPOS>ATOM
      1 C1         -0.0136    1.5121   -0.0068 C.3       1 <0>        -0.1891
      2 C2          0.0072   -0.0177   -0.0035 C.3       1 <0>        -0.0112
      3 N1         -1.3709   -0.5262    0.0068 N.4       1 <0>        -0.5098
      4 C3         -1.3509   -1.9950    0.0099 C.3       1 <0>         0.0433
      5 H1         -0.7510   -2.3484    0.8485 H         1 <0>         0.1494
      6 C4         -0.7431   -2.4996   -1.3004 C.3       1 <0>        -0.1839
      7 C5         -2.7800   -2.5243    0.1463 C.3       1 <0>        -0.1700
      8 C6         -3.3354   -2.1303    1.4907 C.2       1 <0>         0.5051
      9 O1         -2.6551   -1.4893    2.2636 O.2       1 <0>        -0.5255
     10 N2         -4.5880   -2.4902    1.8341 N.am      1 <0>        -0.6488
     11 C7         -5.0633   -2.2258    3.1236 C.ar      1 <0>         0.1487
     12 C8         -4.1715   -2.0888    4.1763 C.ar      1 <0>        -0.0753
     13 C9         -4.6487   -1.8249    5.4598 C.ar      1 <0>        -0.0932
     14 C10        -6.0219   -1.7002    5.6774 C.ar      1 <0>        -0.1247
     15 C11        -6.9035   -1.8383    4.6220 C.ar      1 <0>         0.1194
     16 C12        -6.4280   -2.0951    3.3471 C.ar      1 <0>        -0.1162
     17 C13        -7.3944   -2.2384    2.1996 C.3       1 <0>        -0.1234
     18 F1         -8.2324   -1.7179    4.8339 F         1 <0>        -0.1221
     19 C14        -3.7030   -1.6782    6.5870 C.2       1 <0>         0.5656
     20 O2         -2.5076   -1.7875    6.3955 O.2       1 <0>        -0.5306
     21 N3         -4.1663   -1.4232    7.8266 N.am      1 <0>        -0.8446
     22 H2          1.0090    1.8894   -0.0144 H         1 <0>         0.1077
     23 H3         -0.5383    1.8665   -0.8941 H         1 <0>         0.0794
     24 H4         -0.5264    1.8704    0.8858 H         1 <0>         0.0807
     25 H5          0.5200   -0.3760   -0.8961 H         1 <0>         0.1319
     26 H6          0.5319   -0.3720    0.8838 H         1 <0>         0.1326
     27 H7         -1.8456   -0.1945    0.8331 H         1 <0>         0.4328
     28 H8          0.2750   -2.1226   -1.3976 H         1 <0>         0.0890
     29 H9         -0.7283   -3.5895   -1.2981 H         1 <0>         0.1089
     30 H10        -1.3430   -2.1462   -2.1390 H         1 <0>         0.0845
     31 H11        -3.4014   -2.0998   -0.6421 H         1 <0>         0.1253
     32 H12        -2.7749   -3.6108    0.0596 H         1 <0>         0.1495
     33 H13        -5.1600   -2.9325    1.1875 H         1 <0>         0.4225
     34 H14        -3.1100   -2.1866    4.0028 H         1 <0>         0.1665
     35 H15        -6.3953   -1.4962    6.6701 H         1 <0>         0.1473
     36 H16        -7.6941   -3.2821    2.1052 H         1 <0>         0.0861
     37 H17        -8.2744   -1.6231    2.3867 H         1 <0>         0.0859
     38 H18        -6.9135   -1.9136    1.2769 H         1 <0>         0.0699
     39 H19        -5.1202   -1.3359    7.9794 H         1 <0>         0.4035
     40 H20        -3.5459   -1.3269    8.5660 H         1 <0>         0.4124
     41 H21        -1.8566   -0.1982   -0.8146 H         1 <0>         0.4206
@<TRIPOS>BOND
     1    1    2 1
     2    1   22 1
     3    1   23 1
     4    1   24 1
     5    2    3 1
     6    2   25 1
     7    2   26 1
     8    3    4 1
     9    3   27 1
    10    3   41 1
    11    4    5 1
    12    4    6 1
    13    4    7 1
    14    6   28 1
    15    6   29 1
    16    6   30 1
    17    7    8 1
    18    7   31 1
    19    7   32 1
    20    8    9 2
    21    8   10 am
    22   10   11 1
    23   10   33 1
    24   11   16 ar
    25   11   12 ar
    26   12   13 ar
    27   12   34 1
    28   13   14 ar
    29   13   19 1
    30   14   15 ar
    31   14   35 1
    32   15   16 ar
    33   15   18 1
    34   16   17 1
    35   17   36 1
    36   17   37 1
    37   17   38 1
    38   19   20 2
    39   19   21 am
    40   21   39 1
    41   21   40 1
@<TRIPOS>MOLECULE
ZINC08714058
   51    52     0     0     0
SMALL
USER_CHARGES
3-[(dipropylamino)methyl]-2,7,8-trimethyl-quinolin-4-ol
@<TRIPOS>ATOM
      1 C1          0.8004    4.8864   -0.5837 C.3       1 <0>        -0.1569
      2 C2          0.7446    3.3746   -0.8126 C.3       1 <0>        -0.1653
      3 C3         -0.6982    2.9556   -1.1021 C.3       1 <0>        -0.0154
      4 C4          0.1284    1.0999   -2.4197 C.3       1 <0>        -0.0146
      5 C5         -0.4434    1.6138   -3.7425 C.3       1 <0>        -0.1503
      6 C6          0.4634    1.1761   -4.8944 C.3       1 <0>        -0.1555
      7 C7         -0.4187    0.7770   -0.0832 C.3       1 <0>         0.0498
      8 C8         -1.4848    1.0275    0.9521 C.ar      1 <0>        -0.2511
      9 C9         -2.5890    0.1878    1.0339 C.ar      1 <0>         0.1836
     10 N1         -3.5362    0.3748    1.9223 N.ar      1 <0>        -0.4581
     11 C10        -3.4879    1.3859    2.7969 C.ar      1 <0>         0.1701
     12 C11        -4.5099    1.5736    3.7435 C.ar      1 <0>        -0.0692
     13 C12        -4.4350    2.6106    4.6220 C.ar      1 <0>        -0.0429
     14 C13        -3.3584    3.4942    4.6001 C.ar      1 <0>        -0.0979
     15 C14        -2.3499    3.3433    3.6969 C.ar      1 <0>        -0.0925
     16 C15        -2.3953    2.2855    2.7773 C.ar      1 <0>        -0.1385
     17 C16        -1.3654    2.0906    1.8285 C.ar      1 <0>         0.2152
     18 O1         -0.2966    2.9232    1.7761 O.3       1 <0>        -0.4812
     19 C17        -5.5342    2.8059    5.6342 C.3       1 <0>        -0.1295
     20 C18        -5.6845    0.6304    3.7854 C.3       1 <0>        -0.1140
     21 C19        -2.7015   -0.9700    0.0758 C.3       1 <0>        -0.1173
     22 H1          0.4442    5.4023   -1.4754 H         1 <0>         0.0719
     23 H2          0.1685    5.1490    0.2648 H         1 <0>         0.0608
     24 H3          1.8282    5.1849   -0.3774 H         1 <0>         0.0844
     25 H4          1.1008    2.8587    0.0791 H         1 <0>         0.1001
     26 H5          1.3764    3.1120   -1.6611 H         1 <0>         0.0955
     27 H6         -1.0528    3.4679   -1.9965 H         1 <0>         0.1351
     28 H7         -1.3309    3.2224   -0.2556 H         1 <0>         0.1104
     29 H8          1.1214    1.5220   -2.2647 H         1 <0>         0.1363
     30 H9          0.1967    0.0125   -2.4514 H         1 <0>         0.1321
     31 H10        -1.4423    1.2035   -3.8903 H         1 <0>         0.0857
     32 H11        -0.4978    2.7022   -3.7163 H         1 <0>         0.0849
     33 H12         1.4623    1.5864   -4.7466 H         1 <0>         0.0669
     34 H13         0.5178    0.0877   -4.9205 H         1 <0>         0.0679
     35 H14         0.0560    1.5422   -5.8368 H         1 <0>         0.0773
     36 H15        -0.3615   -0.2907   -0.2948 H         1 <0>         0.1426
     37 H16         0.5430    1.1247    0.2941 H         1 <0>         0.1452
     38 H17        -3.3230    4.3092    5.3078 H         1 <0>         0.1394
     39 H18        -1.5198    4.0343    3.6893 H         1 <0>         0.1389
     40 H19        -0.4184    3.6832    1.1907 H         1 <0>         0.3956
     41 H20        -6.3046    3.4524    5.2138 H         1 <0>         0.0839
     42 H21        -5.9698    1.8397    5.8886 H         1 <0>         0.0796
     43 H22        -5.1233    3.2671    6.5324 H         1 <0>         0.0775
     44 H23        -5.4625   -0.1967    4.4598 H         1 <0>         0.0779
     45 H24        -6.5659    1.1633    4.1419 H         1 <0>         0.0749
     46 H25        -5.8746    0.2422    2.7848 H         1 <0>         0.0798
     47 H26        -2.2237   -1.8484    0.5097 H         1 <0>         0.0973
     48 H27        -3.7533   -1.1845   -0.1130 H         1 <0>         0.0969
     49 H28        -2.2087   -0.7145   -0.8623 H         1 <0>         0.0614
     50 N2         -0.7797    1.4964   -1.3229 N.4       1 <0>        -0.3944
     51 H29        -1.7426    1.2516   -1.5822 H         1 <0>         0.4265
@<TRIPOS>BOND
     1    1    2 1
     2    1   22 1
     3    1   23 1
     4    1   24 1
     5    2    3 1
     6    2   25 1
     7    2   26 1
     8    3   27 1
     9    3   28 1
    10    3   50 1
    11    4    5 1
    12    4   29 1
    13    4   30 1
    14    4   50 1
    15    5    6 1
    16    5   31 1
    17    5   32 1
    18    6   33 1
    19    6   34 1
    20    6   35 1
    21    7    8 1
    22    7   36 1
    23    7   37 1
    24    7   50 1
    25    8   17 ar
    26    8    9 ar
    27    9   10 ar
    28    9   21 1
    29   10   11 ar
    30   11   16 ar
    31   11   12 ar
    32   12   13 ar
    33   12   20 1
    34   13   14 ar
    35   13   19 1
    36   14   15 ar
    37   14   38 1
    38   15   16 ar
    39   15   39 1
    40   16   17 ar
    41   17   18 1
    42   18   40 1
    43   19   41 1
    44   19   42 1
    45   19   43 1
    46   20   44 1
    47   20   45 1
    48   20   46 1
    49   21   47 1
    50   21   48 1
    51   21   49 1
    52   50   51 1
@<TRIPOS>MOLECULE
ZINC37972748
   50    51     0     0     0
SMALL
USER_CHARGES

@<TRIPOS>ATOM
      1 C1          0.6991    0.7967    1.0873 C.3       1 <0>        -0.1572
      2 C2          0.4592   -0.7006    0.8840 C.3       1 <0>         0.0576
      3 O1         -0.9260   -0.9293    0.6175 O.3       1 <0>        -0.3217
      4 C3         -1.3057   -2.2006    0.4141 C.2       1 <0>         0.4638
      5 O2         -0.4890   -3.0898    0.4608 O.2       1 <0>        -0.4896
      6 C4         -2.7506   -2.5188    0.1276 C.3       1 <0>         0.0291
      7 H1         -3.0633   -2.0022   -0.7798 H         1 <0>         0.1812
      8 C5         -3.6169   -2.0575    1.3013 C.3       1 <0>        -0.1056
      9 H2         -4.6488   -2.3690    1.1397 H         1 <0>         0.1175
     10 C6         -3.5521   -0.5296    1.4209 C.3       1 <0>        -0.1178
     11 C7         -4.5609   -0.0840    2.4817 C.3       1 <0>        -0.0964
     12 C8         -4.3903   -0.8974    3.7312 C.2       1 <0>        -0.1355
     13 C9         -3.7536   -2.0233    3.7824 C.2       1 <0>        -0.1694
     14 C10        -3.0917   -2.6718    2.6008 C.3       1 <0>        -0.1003
     15 N1         -2.9058   -3.9680   -0.0558 N.4       1 <0>        -0.4972
     16 C11        -2.2070   -4.3844   -1.2790 C.3       1 <0>         0.0220
     17 C12        -2.8871   -3.7202   -2.4935 C.3       1 <0>        -0.1386
     18 C13        -1.9146   -3.7142   -3.6418 C.3       1 <0>        -0.1212
     19 C14        -2.0914   -4.9309   -4.5702 C.3       1 <0>        -0.1247
     20 C15        -2.3331   -6.2418   -3.7977 C.3       1 <0>        -0.1290
     21 C16        -1.4507   -6.3668   -2.5852 C.3       1 <0>        -0.1059
     22 C17        -2.2235   -5.8375   -1.3598 C.3       1 <0>        -0.1528
     23 H3          1.7556    0.9711    1.2906 H         1 <0>         0.0915
     24 H4          0.4084    1.3369    0.1863 H         1 <0>         0.0726
     25 H5          0.1040    1.1489    1.9299 H         1 <0>         0.0722
     26 H6          1.0542   -1.0528    0.0414 H         1 <0>         0.0792
     27 H7          0.7498   -1.2408    1.7850 H         1 <0>         0.0790
     28 H8         -2.5484   -0.2277    1.7200 H         1 <0>         0.0934
     29 H9         -3.8041   -0.0761    0.4623 H         1 <0>         0.0832
     30 H10        -4.4016    0.9695    2.7118 H         1 <0>         0.0888
     31 H11        -5.5721   -0.2190    2.0980 H         1 <0>         0.0836
     32 H12        -4.8255   -0.5198    4.6447 H         1 <0>         0.1151
     33 H13        -3.6976   -2.5306    4.7342 H         1 <0>         0.1153
     34 H14        -3.3025   -3.7412    2.6059 H         1 <0>         0.0751
     35 H15        -2.0145   -2.5176    2.6638 H         1 <0>         0.0783
     36 H16        -2.5122   -4.4514    0.7376 H         1 <0>         0.4316
     37 H17        -1.1723   -4.0456   -1.2267 H         1 <0>         0.1477
     38 H18        -3.7766   -4.2862   -2.7700 H         1 <0>         0.1003
     39 H19        -3.1644   -2.6962   -2.2432 H         1 <0>         0.0827
     40 H20        -2.0602   -2.8033   -4.2225 H         1 <0>         0.0814
     41 H21        -0.8997   -3.7184   -3.2443 H         1 <0>         0.0690
     42 H22        -2.9404   -4.7496   -5.2294 H         1 <0>         0.0695
     43 H23        -1.1940   -5.0419   -5.1789 H         1 <0>         0.0714
     44 H24        -3.3754   -6.2771   -3.4804 H         1 <0>         0.0639
     45 H25        -2.1402   -7.0837   -4.4626 H         1 <0>         0.0740
     46 H26        -1.1892   -7.4134   -2.4291 H         1 <0>         0.0858
     47 H27        -0.5450   -5.7778   -2.7293 H         1 <0>         0.0771
     48 H28        -1.7737   -6.2465   -0.4551 H         1 <0>         0.0869
     49 H29        -3.2579   -6.1758   -1.4216 H         1 <0>         0.0871
     50 H30        -3.8860   -4.1939   -0.1349 H         1 <0>         0.4363
@<TRIPOS>BOND
     1    1    2 1
     2    1   23 1
     3    1   24 1
     4    1   25 1
     5    2    3 1
     6    2   26 1
     7    2   27 1
     8    3    4 1
     9    4    5 2
    10    4    6 1
    11    6    7 1
    12    6    8 1
    13    6   15 1
    14    8    9 1
    15    8   14 1
    16    8   10 1
    17   10   11 1
    18   10   28 1
    19   10   29 1
    20   11   12 1
    21   11   30 1
    22   11   31 1
    23   12   13 2
    24   12   32 1
    25   13   14 1
    26   13   33 1
    27   14   34 1
    28   14   35 1
    29   15   16 1
    30   15   36 1
    31   15   50 1
    32   16   22 1
    33   16   17 1
    34   16   37 1
    35   17   18 1
    36   17   38 1
    37   17   39 1
    38   18   19 1
    39   18   40 1
    40   18   41 1
    41   19   20 1
    42   19   42 1
    43   19   43 1
    44   20   21 1
    45   20   44 1
    46   20   45 1
    47   21   22 1
    48   21   46 1
    49   21   47 1
    50   22   48 1
    51   22   49 1
@<TRIPOS>MOLECULE
ZINC49970304
   46    47     0     0     0
SMALL
USER_CHARGES

@<TRIPOS>ATOM
      1 C1         -0.0187    1.5258    0.0104 C.3       1 <0>        -0.1884
      2 C2          0.0021   -0.0041    0.0020 C.3       1 <0>        -0.0140
      3 N1         -1.3761   -0.5125    0.0124 N.4       1 <0>        -0.5086
      4 C3         -1.3562   -1.9814    0.0044 C.3       1 <0>         0.0825
      5 H1         -0.7538   -2.3412    0.8385 H         1 <0>         0.1464
      6 C4         -0.7522   -2.4760   -1.3115 C.3       1 <0>        -0.1825
      7 C5         -2.7634   -2.5036    0.1388 C.ar      1 <0>        -0.1403
      8 C6         -3.8308   -1.7269   -0.2672 C.ar      1 <0>        -0.1239
      9 C7         -5.1223   -2.2052   -0.1442 C.ar      1 <0>        -0.0983
     10 C8         -5.3500   -3.4626    0.3851 C.ar      1 <0>        -0.0862
     11 C9         -4.2876   -4.2447    0.7926 C.ar      1 <0>        -0.1033
     12 C10        -2.9881   -3.7690    0.6660 C.ar      1 <0>         0.1860
     13 N2         -1.9105   -4.5596    1.0723 N.pl3     1 <0>        -0.6036
     14 C11        -1.2718   -5.4724    0.1209 C.3       1 <0>         0.0887
     15 C12        -1.4410   -4.4797    2.3884 C.ar      1 <0>         0.1588
     16 C13        -2.0498   -3.6188    3.2922 C.ar      1 <0>        -0.1490
     17 C14        -1.5862   -3.5410    4.5907 C.ar      1 <0>        -0.1085
     18 C15        -0.5128   -4.3224    4.9923 C.ar      1 <0>         0.0915
     19 C16         0.0962   -5.1822    4.0901 C.ar      1 <0>        -0.1611
     20 C17        -0.3697   -5.2656    2.7928 C.ar      1 <0>        -0.1409
     21 O1         -0.0569   -4.2451    6.2712 O.3       1 <0>        -0.3179
     22 C18         1.0519   -5.0780    6.6161 C.3       1 <0>         0.0263
     23 H2          1.0039    1.9031    0.0027 H         1 <0>         0.1082
     24 H3         -0.5459    1.8868   -0.8726 H         1 <0>         0.0807
     25 H4         -0.5289    1.8773    0.9072 H         1 <0>         0.0813
     26 H5          0.5123   -0.3556   -0.8948 H         1 <0>         0.1330
     27 H6          0.5293   -0.3651    0.8851 H         1 <0>         0.1317
     28 H7         -1.8484   -0.1871    0.8426 H         1 <0>         0.4296
     29 H8         -1.3545   -2.1162   -2.1457 H         1 <0>         0.0835
     30 H9          0.2656   -2.0983   -1.4087 H         1 <0>         0.0851
     31 H10        -0.7374   -3.5659   -1.3175 H         1 <0>         0.1090
     32 H11        -3.6566   -0.7446   -0.6809 H         1 <0>         0.1199
     33 H12        -5.9552   -1.5955   -0.4618 H         1 <0>         0.1387
     34 H13        -6.3601   -3.8330    0.4801 H         1 <0>         0.1399
     35 H14        -4.4661   -5.2263    1.2062 H         1 <0>         0.1383
     36 H15        -0.4622   -4.9538   -0.3926 H         1 <0>         0.0539
     37 H16        -0.8703   -6.3327    0.6563 H         1 <0>         0.0801
     38 H17        -2.0078   -5.8097   -0.6089 H         1 <0>         0.0726
     39 H18        -2.8854   -3.0101    2.9796 H         1 <0>         0.1241
     40 H19        -2.0593   -2.8713    5.2936 H         1 <0>         0.1335
     41 H20         0.9322   -5.7900    4.4036 H         1 <0>         0.1333
     42 H21         0.1015   -5.9386    2.0918 H         1 <0>         0.1300
     43 H22         1.3142   -4.9191    7.6621 H         1 <0>         0.1039
     44 H23         0.7824   -6.1232    6.4639 H         1 <0>         0.0569
     45 H24         1.9048   -4.8272    5.9855 H         1 <0>         0.0553
     46 H25        -1.8641   -0.1783   -0.8050 H         1 <0>         0.4238
@<TRIPOS>BOND
     1    1    2 1
     2    1   23 1
     3    1   24 1
     4    1   25 1
     5    2    3 1
     6    2   26 1
     7    2   27 1
     8    3    4 1
     9    3   28 1
    10    3   46 1
    11    4    5 1
    12    4    6 1
    13    4    7 1
    14    6   29 1
    15    6   30 1
    16    6   31 1
    17    7   12 ar
    18    7    8 ar
    19    8    9 ar
    20    8   32 1
    21    9   10 ar
    22    9   33 1
    23   10   11 ar
    24   10   34 1
    25   11   12 ar
    26   11   35 1
    27   12   13 1
    28   13   14 1
    29   13   15 1
    30   14   36 1
    31   14   37 1
    32   14   38 1
    33   15   20 ar
    34   15   16 ar
    35   16   17 ar
    36   16   39 1
    37   17   18 ar
    38   17   40 1
    39   18   19 ar
    40   18   21 1
    41   19   20 ar
    42   19   41 1
    43   20   42 1
    44   21   22 1
    45   22   43 1
    46   22   44 1
    47   22   45 1
@<TRIPOS>MOLECULE
ZINC53877894
   58    59     0     0     0
SMALL
USER_CHARGES

@<TRIPOS>ATOM
      1 C1          0.5295    4.2579   -2.8917 C.3       1 <0>        -0.1561
      2 C2          0.3064    2.9711   -2.0946 C.3       1 <0>        -0.1288
      3 C3          0.9677    1.7991   -2.8226 C.3       1 <0>        -0.1158
      4 C4          0.7445    0.5123   -2.0255 C.3       1 <0>        -0.0957
      5 H1          1.1046    0.6495   -1.0059 H         1 <0>         0.0862
      6 C5         -0.7490    0.1814   -1.9988 C.3       1 <0>        -0.1134
      7 C6         -1.2544   -0.0111   -3.4300 C.3       1 <0>        -0.1408
      8 C7         -0.4893   -1.1595   -4.0909 C.3       1 <0>         0.0271
      9 H2         -0.6483   -2.0763   -3.5230 H         1 <0>         0.1384
     10 C8          1.0042   -0.8287   -4.1176 C.3       1 <0>        -0.1001
     11 H3          1.1632    0.0880   -4.6854 H         1 <0>         0.1066
     12 C9          1.5096   -0.6361   -2.6863 C.3       1 <0>        -0.1074
     13 C10         1.7693   -1.9771   -4.7784 C.3       1 <0>         0.0350
     14 N1          3.1737   -1.5878   -4.9627 N.3       1 <0>        -0.5208
     15 C11         4.0118   -2.1071   -3.8721 C.3       1 <0>         0.0173
     16 C12         5.4526   -1.6293   -4.0711 C.3       1 <0>         0.0859
     17 H4          6.0886   -2.0585   -3.2970 H         1 <0>         0.1092
     18 O1          5.9157   -2.0500   -5.3572 O.3       1 <0>        -0.3736
     19 C13         5.1228   -1.5618   -6.4427 C.3       1 <0>         0.0630
     20 C14         3.6786   -2.0389   -6.2676 C.3       1 <0>         0.0453
     21 H5          3.6468   -3.1274   -6.3137 H         1 <0>         0.0552
     22 C15         2.8087   -1.4538   -7.3820 C.3       1 <0>        -0.1124
     23 C16         3.3857   -1.8522   -8.7418 C.3       1 <0>        -0.1615
     24 C17         5.5013   -0.1026   -3.9840 C.3       1 <0>        -0.1766
     25 N2         -0.9746   -1.3444   -5.4650 N.4       1 <0>        -0.5114
     26 C18        -2.3775   -1.7788   -5.4347 C.3       1 <0>        -0.0517
     27 H6          1.5990    4.4458   -2.9864 H         1 <0>         0.0561
     28 H7          0.0901    4.1517   -3.8835 H         1 <0>         0.0505
     29 H8          0.0584    5.0928   -2.3731 H         1 <0>         0.0575
     30 H9          0.7458    3.0773   -1.1028 H         1 <0>         0.0650
     31 H10        -0.7631    2.7832   -2.0000 H         1 <0>         0.0614
     32 H11         0.5282    1.6929   -3.8144 H         1 <0>         0.0586
     33 H12         2.0372    1.9870   -2.9173 H         1 <0>         0.0691
     34 H13        -0.9080   -0.7353   -1.4309 H         1 <0>         0.0732
     35 H14        -1.2941    0.9996   -1.5280 H         1 <0>         0.0870
     36 H15        -2.3184   -0.2468   -3.4110 H         1 <0>         0.0873
     37 H16        -1.0954    0.9056   -3.9979 H         1 <0>         0.0910
     38 H17         2.5736   -0.4004   -2.7053 H         1 <0>         0.0943
     39 H18         1.3506   -1.5528   -2.1185 H         1 <0>         0.0695
     40 H19         1.7176   -2.8612   -4.1429 H         1 <0>         0.0624
     41 H20         1.3238   -2.2000   -5.7479 H         1 <0>         0.0626
     42 H21         3.6352   -1.7400   -2.9173 H         1 <0>         0.0957
     43 H22         3.9853   -3.1967   -3.8799 H         1 <0>         0.0478
     44 H23         5.1477   -0.4721   -6.4503 H         1 <0>         0.0655
     45 H24         5.5202   -1.9422   -7.3836 H         1 <0>         0.1024
     46 H25         1.7934   -1.8398   -7.2909 H         1 <0>         0.0510
     47 H26         2.7931   -0.3671   -7.2981 H         1 <0>         0.0761
     48 H27         3.5313   -2.9320   -8.7725 H         1 <0>         0.0594
     49 H28         2.6942   -1.5563   -9.5307 H         1 <0>         0.0621
     50 H29         4.3426   -1.3522   -8.8911 H         1 <0>         0.0651
     51 H30         5.1449    0.2170   -3.0047 H         1 <0>         0.0649
     52 H31         6.5273    0.2369   -4.1258 H         1 <0>         0.0631
     53 H32         4.8663    0.3260   -4.7593 H         1 <0>         0.0697
     54 H33        -0.9033   -0.4721   -5.9671 H         1 <0>         0.4277
     55 H34        -2.4545   -2.7211   -4.8923 H         1 <0>         0.1238
     56 H35        -2.9816   -1.0215   -4.9349 H         1 <0>         0.1263
     57 H36        -2.7376   -1.9160   -6.4543 H         1 <0>         0.1269
     58 H37        -0.4154   -2.0454   -5.9277 H         1 <0>         0.4243
@<TRIPOS>BOND
     1    1    2 1
     2    1   27 1
     3    1   28 1
     4    1   29 1
     5    2    3 1
     6    2   30 1
     7    2   31 1
     8    3    4 1
     9    3   32 1
    10    3   33 1
    11    4    5 1
    12    4   12 1
    13    4    6 1
    14    6    7 1
    15    6   34 1
    16    6   35 1
    17    7    8 1
    18    7   36 1
    19    7   37 1
    20    8    9 1
    21    8   10 1
    22    8   25 1
    23   10   11 1
    24   10   12 1
    25   10   13 1
    26   12   38 1
    27   12   39 1
    28   13   14 1
    29   13   40 1
    30   13   41 1
    31   14   20 1
    32   14   15 1
    33   15   16 1
    34   15   42 1
    35   15   43 1
    36   16   17 1
    37   16   18 1
    38   16   24 1
    39   18   19 1
    40   19   20 1
    41   19   44 1
    42   19   45 1
    43   20   21 1
    44   20   22 1
    45   22   23 1
    46   22   46 1
    47   22   47 1
    48   23   48 1
    49   23   49 1
    50   23   50 1
    51   24   51 1
    52   24   52 1
    53   24   53 1
    54   25   26 1
    55   25   54 1
    56   25   58 1
    57   26   55 1
    58   26   56 1
    59   26   57 1
@<TRIPOS>MOLECULE
ZINC54597455
   49    51     0     0     0
SMALL
USER_CHARGES

@<TRIPOS>ATOM
      1 C1         -0.0187    1.5258    0.0104 C.3       1 <0>        -0.1340
      2 C2          0.0021   -0.0041    0.0020 C.3       1 <0>        -0.0851
      3 C3         -0.8252   -0.7277    1.0664 C.3       1 <0>        -0.1590
      4 C4          0.7014   -0.7075    1.1670 C.3       1 <0>        -0.2067
      5 H1          1.1466   -0.0804    1.9393 H         1 <0>         0.1259
      6 C5          1.4467   -2.0084    0.8619 C.3       1 <0>         0.0162
      7 N1          2.1468   -2.4664    2.0693 N.4       1 <0>        -0.5016
      8 C6          2.8624   -3.7154    1.7764 C.3       1 <0>         0.0553
      9 C7          3.8789   -3.4709    0.6593 C.3       1 <0>        -0.1788
     10 C8          3.5917   -4.1924    3.0340 C.3       1 <0>        -0.1771
     11 C9          1.8620   -4.7838    1.3308 C.3       1 <0>        -0.1788
     12 C10         0.1021   -0.6551   -1.3790 C.3       1 <0>        -0.0862
     13 C11        -0.6587    0.1940   -2.3993 C.3       1 <0>        -0.0757
     14 C12        -0.5602   -0.4473   -3.7596 C.ar      1 <0>        -0.0818
     15 C13         0.4852   -0.1192   -4.6027 C.ar      1 <0>        -0.1066
     16 C14         0.5801   -0.7051   -5.8511 C.ar      1 <0>        -0.0974
     17 C15        -0.3735   -1.6229   -6.2607 C.ar      1 <0>         0.0327
     18 C16        -1.4266   -1.9533   -5.4114 C.ar      1 <0>         0.0362
     19 C17        -1.5122   -1.3665   -4.1593 C.ar      1 <0>        -0.0997
     20 O1         -2.2220   -2.8685   -6.0384 O.3       1 <0>        -0.3087
     21 C18        -1.8743   -2.7885   -7.4333 C.3       1 <0>         0.2126
     22 O2         -0.5090   -2.3311   -7.4197 O.3       1 <0>        -0.3073
     23 H2          1.0039    1.9031    0.0027 H         1 <0>         0.0666
     24 H3         -0.5459    1.8868   -0.8726 H         1 <0>         0.0812
     25 H4         -0.5289    1.8773    0.9072 H         1 <0>         0.0641
     26 H5         -1.3842   -0.1138    1.7726 H         1 <0>         0.1105
     27 H6         -1.2985   -1.6677    0.7829 H         1 <0>         0.1057
     28 H7          0.7340   -2.7696    0.5444 H         1 <0>         0.1332
     29 H8          2.1708   -1.8342    0.0660 H         1 <0>         0.1355
     30 H9          2.8066   -1.7618    2.3632 H         1 <0>         0.4262
     31 H10         4.5916   -2.7097    0.9767 H         1 <0>         0.0825
     32 H11         4.4098   -4.3977    0.4419 H         1 <0>         0.1056
     33 H12         3.3593   -3.1311   -0.2367 H         1 <0>         0.0820
     34 H13         2.8675   -4.3666    3.8299 H         1 <0>         0.0821
     35 H14         4.1226   -5.1192    2.8167 H         1 <0>         0.1064
     36 H15         4.3043   -3.4312    3.3515 H         1 <0>         0.0821
     37 H16         1.3425   -4.4440    0.4348 H         1 <0>         0.0815
     38 H17         2.3930   -5.7106    1.1134 H         1 <0>         0.1057
     39 H18         1.1379   -4.9580    2.1266 H         1 <0>         0.0824
     40 H19         1.1494   -0.7246   -1.6729 H         1 <0>         0.0733
     41 H20        -0.3320   -1.6542   -1.3419 H         1 <0>         0.0702
     42 H21        -1.7061    0.2635   -2.1054 H         1 <0>         0.0808
     43 H22        -0.2247    1.1931   -2.4364 H         1 <0>         0.0865
     44 H23         1.2291    0.5966   -4.2854 H         1 <0>         0.1374
     45 H24         1.3979   -0.4470   -6.5077 H         1 <0>         0.1380
     46 H25        -2.3253   -1.6242   -3.4968 H         1 <0>         0.1338
     47 H26        -1.9448   -3.7698   -7.9025 H         1 <0>         0.1362
     48 H27        -2.5136   -2.0704   -7.9469 H         1 <0>         0.0891
     49 H28         1.4765   -2.6276    2.8060 H         1 <0>         0.4273
@<TRIPOS>BOND
     1    1    2 1
     2    1   23 1
     3    1   24 1
     4    1   25 1
     5    2    4 1
     6    2    3 1
     7    2   12 1
     8    3    4 1
     9    3   26 1
    10    3   27 1
    11    4    5 1
    12    4    6 1
    13    6    7 1
    14    6   28 1
    15    6   29 1
    16    7    8 1
    17    7   30 1
    18    7   49 1
    19    8    9 1
    20    8   10 1
    21    8   11 1
    22    9   31 1
    23    9   32 1
    24    9   33 1
    25   10   34 1
    26   10   35 1
    27   10   36 1
    28   11   37 1
    29   11   38 1
    30   11   39 1
    31   12   13 1
    32   12   40 1
    33   12   41 1
    34   13   14 1
    35   13   42 1
    36   13   43 1
    37   14   19 ar
    38   14   15 ar
    39   15   16 ar
    40   15   44 1
    41   16   17 ar
    42   16   45 1
    43   17   22 1
    44   17   18 ar
    45   18   19 ar
    46   18   20 1
    47   19   46 1
    48   20   21 1
    49   21   22 1
    50   21   47 1
    51   21   48 1
@<TRIPOS>MOLECULE
ZINC20124359
   40    42     0     0     0
SMALL
USER_CHARGES
(1R)-N-(1,3-benzodioxol-5-ylmethyl)-1-(p-tolyl)ethanamine
@<TRIPOS>ATOM
      1 C1          6.6346    3.0531    8.9283 C.3       1 <0>        -0.1331
      2 C2          6.5706    2.1521    7.7220 C.ar      1 <0>        -0.0520
      3 C3          7.6547    2.0609    6.8692 C.ar      1 <0>        -0.1101
      4 C4          7.5962    1.2341    5.7629 C.ar      1 <0>        -0.0836
      5 C5          6.4534    0.4988    5.5092 C.ar      1 <0>        -0.1519
      6 C6          5.3672    0.5944    6.3589 C.ar      1 <0>        -0.1163
      7 C7          5.4277    1.4172    7.4681 C.ar      1 <0>        -0.1102
      8 C8          6.3895   -0.4022    4.3030 C.3       1 <0>         0.0905
      9 H1          7.1249   -0.0729    3.5542 H         1 <0>         0.1401
     10 C9          6.6533   -1.8472    4.7312 C.3       1 <0>        -0.1780
     11 N1          5.0571   -0.3081    3.6916 N.4       1 <0>        -0.5405
     12 C10         5.1067   -0.6553    2.2651 C.3       1 <0>         0.0541
     13 C11         3.7249   -0.5477    1.6735 C.ar      1 <0>        -0.1565
     14 C12         2.8862   -1.6467    1.6755 C.ar      1 <0>        -0.0787
     15 C13         1.6174   -1.5528    1.1347 C.ar      1 <0>        -0.1009
     16 C14         1.1834   -0.3558    0.5885 C.ar      1 <0>         0.0717
     17 C15         2.0283    0.7513    0.5864 C.ar      1 <0>         0.0398
     18 C16         3.2985    0.6499    1.1304 C.ar      1 <0>        -0.0808
     19 O1          1.3764    1.7966   -0.0014 O.3       1 <0>        -0.3027
     20 C17        -0.0175    1.4357    0.0099 C.3       1 <0>         0.2065
     21 O2          0.0021   -0.0041    0.0020 O.3       1 <0>        -0.2943
     22 H2          7.6149    3.5510    8.9625 H         1 <0>         0.0743
     23 H3          6.4953    2.4547    9.8407 H         1 <0>         0.0808
     24 H4          5.8404    3.8113    8.8622 H         1 <0>         0.0802
     25 H5          8.5475    2.6354    7.0674 H         1 <0>         0.1355
     26 H6          8.4432    1.1628    5.0967 H         1 <0>         0.1328
     27 H7          4.4728    0.0233    6.1583 H         1 <0>         0.1206
     28 H8          4.5806    1.4888    8.1342 H         1 <0>         0.1338
     29 H9          6.6066   -2.5049    3.8507 H         1 <0>         0.0834
     30 H10         5.8919   -2.1579    5.4617 H         1 <0>         0.0835
     31 H11         7.6510   -1.9176    5.1890 H         1 <0>         0.1062
     32 H12         4.3707   -1.0015    4.1997 H         1 <0>         0.4449
     33 H13         5.7841    0.0363    1.7428 H         1 <0>         0.1375
     34 H14         5.4752   -1.6855    2.1510 H         1 <0>         0.1398
     35 H15         3.2227   -2.5806    2.1010 H         1 <0>         0.1473
     36 H16         0.9644   -2.4129    1.1376 H         1 <0>         0.1493
     37 H17         3.9559    1.5068    1.1299 H         1 <0>         0.1438
     38 H18        -0.4938    1.8410    0.9148 H         1 <0>         0.0975
     39 H19        -0.5109    1.8506   -0.8814 H         1 <0>         0.1460
     40 H20         4.6797    0.7203    3.7914 H         1 <0>         0.4499
@<TRIPOS>BOND
     1    1    2 1
     2    1   22 1
     3    1   23 1
     4    1   24 1
     5    2    7 ar
     6    2    3 ar
     7    3    4 ar
     8    3   25 1
     9    4    5 ar
    10    4   26 1
    11    5    6 ar
    12    5    8 1
    13    6    7 ar
    14    6   27 1
    15    7   28 1
    16    8    9 1
    17    8   10 1
    18    8   11 1
    19   10   29 1
    20   10   30 1
    21   10   31 1
    22   11   12 1
    23   11   32 1
    24   11   40 1
    25   12   13 1
    26   12   33 1
    27   12   34 1
    28   13   18 ar
    29   13   14 ar
    30   14   15 ar
    31   14   35 1
    32   15   16 ar
    33   15   36 1
    34   16   21 1
    35   16   17 ar
    36   17   18 ar
    37   17   19 1
    38   18   37 1
    39   19   20 1
    40   20   21 1
    41   20   38 1
    42   20   39 1
@<TRIPOS>MOLECULE
ZINC37242323
   44    46     0     0     0
SMALL
USER_CHARGES

@<TRIPOS>ATOM
      1 C1          0.1028    0.9797   -0.3014 C.3       1 <0>        -0.1035
      2 C2          0.1492   -0.5083   -0.0678 C.2       1 <0>        -0.0876
      3 C3          0.2298   -1.5589   -1.0896 C.ar      1 <0>        -0.1426
      4 C4          0.2858   -1.5619   -2.4826 C.ar      1 <0>        -0.0581
      5 C5          0.3572   -2.7501   -3.1555 C.ar      1 <0>        -0.1270
      6 C6          0.3741   -3.9509   -2.4609 C.ar      1 <0>        -0.0691
      7 C7          0.3195   -3.9677   -1.0836 C.ar      1 <0>        -0.1121
      8 C8          0.2467   -2.7716   -0.3804 C.ar      1 <0>         0.0732
      9 O1          0.1823   -2.4691    0.9317 O.3       1 <0>        -0.1963
     10 C9          0.1309   -1.1381    1.1148 C.2       1 <0>        -0.0654
     11 C10         0.0589   -0.4538    2.4556 C.3       1 <0>         0.1226
     12 H1         -0.2407    0.5851    2.3177 H         1 <0>         0.1631
     13 C11         1.4323   -0.5036    3.1280 C.3       1 <0>        -0.1827
     14 N1         -0.9262   -1.1392    3.3029 N.4       1 <0>        -0.5037
     15 C12        -2.2667   -0.9772    2.7244 C.3       1 <0>         0.0130
     16 H2         -2.2576   -1.3113    1.6869 H         1 <0>         0.1439
     17 C13        -2.6722    0.4970    2.7818 C.3       1 <0>        -0.1839
     18 C14        -3.2704   -1.8135    3.5207 C.3       1 <0>         0.0608
     19 H3         -2.9330   -2.8489    3.5686 H         1 <0>         0.1053
     20 C15        -4.6586   -1.7456    2.8486 C.3       1 <0>        -0.1485
     21 C16        -5.6131   -1.6667    4.0712 C.3       1 <0>        -0.1563
     22 C17        -4.7536   -0.8425    5.0626 C.3       1 <0>         0.0486
     23 O2         -3.4021   -1.2836    4.8449 O.3       1 <0>        -0.3802
     24 H4          1.1179    1.3761   -0.3219 H         1 <0>         0.0882
     25 H5         -0.3859    1.1828   -1.2544 H         1 <0>         0.0849
     26 H6         -0.4573    1.4565    0.5030 H         1 <0>         0.0707
     27 H7          0.2726   -0.6297   -3.0278 H         1 <0>         0.1344
     28 H8          0.4002   -2.7538   -4.2347 H         1 <0>         0.1399
     29 H9          0.4304   -4.8822   -3.0048 H         1 <0>         0.1455
     30 H10         0.3330   -4.9080   -0.5525 H         1 <0>         0.1387
     31 H11         1.6929   -1.5393    3.3458 H         1 <0>         0.0873
     32 H12         2.1793   -0.0736    2.4608 H         1 <0>         0.1113
     33 H13         1.4032    0.0667    4.0565 H         1 <0>         0.0952
     34 H14        -0.6992   -2.1209    3.3558 H         1 <0>         0.4309
     35 H15        -2.7506    0.8120    3.8223 H         1 <0>         0.0924
     36 H16        -1.9194    1.1009    2.2751 H         1 <0>         0.0800
     37 H17        -3.6354    0.6284    2.2888 H         1 <0>         0.1066
     38 H18        -4.7466   -0.8528    2.2295 H         1 <0>         0.0901
     39 H19        -4.8509   -2.6451    2.2638 H         1 <0>         0.0975
     40 H20        -6.5334   -1.1405    3.8177 H         1 <0>         0.0969
     41 H21        -5.8267   -2.6593    4.4676 H         1 <0>         0.0881
     42 H22        -4.8442    0.2222    4.8473 H         1 <0>         0.0718
     43 H23        -5.0574   -1.0490    6.0889 H         1 <0>         0.1001
     44 H24        -0.9091   -0.7396    4.2292 H         1 <0>         0.4361
@<TRIPOS>BOND
     1    1    2 1
     2    1   24 1
     3    1   25 1
     4    1   26 1
     5    2   10 2
     6    2    3 1
     7    3    8 ar
     8    3    4 ar
     9    4    5 ar
    10    4   27 1
    11    5    6 ar
    12    5   28 1
    13    6    7 ar
    14    6   29 1
    15    7    8 ar
    16    7   30 1
    17    8    9 1
    18    9   10 1
    19   10   11 1
    20   11   12 1
    21   11   13 1
    22   11   14 1
    23   13   31 1
    24   13   32 1
    25   13   33 1
    26   14   15 1
    27   14   34 1
    28   14   44 1
    29   15   16 1
    30   15   17 1
    31   15   18 1
    32   17   35 1
    33   17   36 1
    34   17   37 1
    35   18   19 1
    36   18   23 1
    37   18   20 1
    38   20   21 1
    39   20   38 1
    40   20   39 1
    41   21   22 1
    42   21   40 1
    43   21   41 1
    44   22   23 1
    45   22   42 1
    46   22   43 1
@<TRIPOS>MOLECULE
ZINC44032653
   52    53     0     0     0
SMALL
USER_CHARGES

@<TRIPOS>ATOM
      1 C1         -0.0187    1.5258    0.0104 C.3       1 <0>        -0.1581
      2 C2          0.0021   -0.0041    0.0020 C.3       1 <0>        -0.1251
      3 C3          0.7421   -0.5109    1.2415 C.3       1 <0>        -0.1167
      4 C4          0.7628   -2.0407    1.2331 C.3       1 <0>        -0.0896
      5 H1          1.1931   -2.3931    0.2957 H         1 <0>         0.0810
      6 C5         -0.6659   -2.5709    1.3697 C.3       1 <0>        -0.1181
      7 C6         -0.6451   -4.1008    1.3612 C.3       1 <0>        -0.1373
      8 C7          0.2003   -4.6058    2.5322 C.3       1 <0>         0.0171
      9 H2         -0.2299   -4.2534    3.4696 H         1 <0>         0.1515
     10 C8          1.6290   -4.0756    2.3956 C.3       1 <0>         0.1566
     11 H3          2.0593   -4.4280    1.4582 H         1 <0>         0.1206
     12 C9          1.6083   -2.5458    2.4040 C.3       1 <0>        -0.1194
     13 N1          2.4386   -4.5592    3.5168 N.pl3     1 <0>        -0.4053
     14 C10         3.5504   -5.3183    3.4239 C.2       1 <0>         0.0686
     15 C11         3.9984   -5.5490    4.6798 C.2       1 <0>        -0.2128
     16 C12         3.1306   -4.9089    5.5706 C.2       1 <0>         0.1001
     17 N2          2.1987   -4.3102    4.8743 N.2       1 <0>        -0.2949
     18 C13         3.2521   -4.9038    7.0727 C.3       1 <0>        -0.0835
     19 C14         5.2166   -6.3540    5.0527 C.3       1 <0>        -0.0835
     20 C15         4.1800   -5.8197    2.1499 C.3       1 <0>        -0.0992
     21 N3          0.2203   -6.0746    2.5241 N.4       1 <0>        -0.5096
     22 C16        -1.1346   -6.5841    2.7748 C.3       1 <0>        -0.0124
     23 C17        -1.1138   -8.1139    2.7664 C.3       1 <0>        -0.1884
     24 H4          1.0039    1.9031    0.0027 H         1 <0>         0.0558
     25 H5         -0.5459    1.8868   -0.8726 H         1 <0>         0.0581
     26 H6         -0.5289    1.8773    0.9072 H         1 <0>         0.0555
     27 H7         -1.0205   -0.3814    0.0098 H         1 <0>         0.0634
     28 H8          0.5123   -0.3556   -0.8948 H         1 <0>         0.0626
     29 H9          1.7647   -0.1336    1.2338 H         1 <0>         0.0691
     30 H10         0.2319   -0.1594    2.1383 H         1 <0>         0.0682
     31 H11        -1.0962   -2.2185    2.3071 H         1 <0>         0.0795
     32 H12        -1.2682   -2.2111    0.5355 H         1 <0>         0.0943
     33 H13        -1.6630   -4.4785    1.4585 H         1 <0>         0.0971
     34 H14        -0.2148   -4.4531    0.4238 H         1 <0>         0.0910
     35 H15         2.6261   -2.1681    2.3068 H         1 <0>         0.0888
     36 H16         1.1780   -2.1934    3.3415 H         1 <0>         0.0901
     37 H17         3.8574   -4.0529    7.3854 H         1 <0>         0.0855
     38 H18         2.2599   -4.8268    7.5172 H         1 <0>         0.0766
     39 H19         3.7270   -5.8280    7.4019 H         1 <0>         0.0843
     40 H20         6.0867   -5.6988    5.0930 H         1 <0>         0.0699
     41 H21         5.0630   -6.8144    6.0287 H         1 <0>         0.0700
     42 H22         5.3811   -7.1310    4.3062 H         1 <0>         0.0649
     43 H23         4.9078   -5.0910    1.7929 H         1 <0>         0.0901
     44 H24         4.6803   -6.7691    2.3410 H         1 <0>         0.0954
     45 H25         3.4074   -5.9618    1.3942 H         1 <0>         0.0620
     46 H26         0.5416   -6.4017    1.6253 H         1 <0>         0.4225
     47 H27        -1.4817   -6.2308    3.7457 H         1 <0>         0.1315
     48 H28        -1.8075   -6.2256    1.9959 H         1 <0>         0.1350
     49 H29        -2.1191   -8.4920    2.9524 H         1 <0>         0.1097
     50 H30        -0.7667   -8.4673    1.7954 H         1 <0>         0.0813
     51 H31        -0.4409   -8.4725    3.5453 H         1 <0>         0.0797
     52 H32         0.8432   -6.4065    3.2451 H         1 <0>         0.4266
@<TRIPOS>BOND
     1    1    2 1
     2    1   24 1
     3    1   25 1
     4    1   26 1
     5    2    3 1
     6    2   27 1
     7    2   28 1
     8    3    4 1
     9    3   29 1
    10    3   30 1
    11    4    5 1
    12    4   12 1
    13    4    6 1
    14    6    7 1
    15    6   31 1
    16    6   32 1
    17    7    8 1
    18    7   33 1
    19    7   34 1
    20    8    9 1
    21    8   10 1
    22    8   21 1
    23   10   11 1
    24   10   12 1
    25   10   13 1
    26   12   35 1
    27   12   36 1
    28   13   17 1
    29   13   14 1
    30   14   15 2
    31   14   20 1
    32   15   16 1
    33   15   19 1
    34   16   17 2
    35   16   18 1
    36   18   37 1
    37   18   38 1
    38   18   39 1
    39   19   40 1
    40   19   41 1
    41   19   42 1
    42   20   43 1
    43   20   44 1
    44   20   45 1
    45   21   22 1
    46   21   46 1
    47   21   52 1
    48   22   23 1
    49   22   47 1
    50   22   48 1
    51   23   49 1
    52   23   50 1
    53   23   51 1
@<TRIPOS>MOLECULE
ZINC50426571
   47    48     0     0     0
SMALL
USER_CHARGES

@<TRIPOS>ATOM
      1 C1         -1.1450    1.9852   -0.9074 C.3       1 <0>        -0.1554
      2 C2         -0.5509    0.6076   -0.6073 C.3       1 <0>        -0.1195
      3 C3          0.1638    0.0782   -1.8523 C.3       1 <0>        -0.1110
      4 H1         -0.5267    0.0795   -2.6957 H         1 <0>         0.0812
      5 C4          1.3617    0.9746   -2.1725 C.3       1 <0>        -0.1448
      6 C5          0.6497   -1.3492   -1.5931 C.3       1 <0>         0.0935
      7 N1          1.2276   -1.8990   -2.8219 N.am      1 <0>        -0.5261
      8 C6          0.4731   -2.4588   -3.8535 C.ar      1 <0>         0.1557
      9 C7         -0.9034   -2.6322   -3.9849 C.ar      1 <0>        -0.0784
     10 C8         -1.4219   -3.2226   -5.1186 C.ar      1 <0>        -0.0562
     11 C9         -0.5824   -3.6466   -6.1326 C.ar      1 <0>        -0.0830
     12 C10         0.7857   -3.4778   -6.0094 C.ar      1 <0>        -0.0558
     13 C11         1.3058   -2.8888   -4.8788 C.ar      1 <0>        -0.2017
     14 C12         2.7169   -2.5658   -4.4444 C.3       1 <0>         0.0506
     15 H2          3.3094   -3.4770   -4.3629 H         1 <0>         0.1822
     16 C13         2.5447   -1.9169   -3.0875 C.2       1 <0>         0.5132
     17 O1          3.4294   -1.4941   -2.3736 O.2       1 <0>        -0.4548
     18 N2          3.3435   -1.6285   -5.3861 N.4       1 <0>        -0.4896
     19 C14         4.7488   -1.4235   -5.0107 C.3       1 <0>        -0.0234
     20 C15         5.4015   -0.4472   -5.9915 C.3       1 <0>        -0.1855
     21 C16        -1.1557   -4.2913   -7.3682 C.3       1 <0>        -0.1222
     22 C17        -1.8273   -2.1744   -2.8858 C.3       1 <0>        -0.1376
     23 H3         -0.3464    2.6721   -1.1875 H         1 <0>         0.0578
     24 H4         -1.8577    1.9027   -1.7280 H         1 <0>         0.0551
     25 H5         -1.6542    2.3624   -0.0205 H         1 <0>         0.0621
     26 H6          0.1618    0.6901    0.2132 H         1 <0>         0.0698
     27 H7         -1.3496   -0.0793   -0.3272 H         1 <0>         0.0689
     28 H8          2.0521    0.9733   -1.3291 H         1 <0>         0.0642
     29 H9          1.8708    0.5974   -3.0594 H         1 <0>         0.0337
     30 H10         1.0154    1.9915   -2.3571 H         1 <0>         0.0681
     31 H11         1.4066   -1.3386   -0.8088 H         1 <0>         0.1033
     32 H12        -0.1908   -1.9677   -1.2785 H         1 <0>         0.1081
     33 H13        -2.4895   -3.3549   -5.2148 H         1 <0>         0.1457
     34 H14         1.4445   -3.8073   -6.7992 H         1 <0>         0.1384
     35 H15         3.2967   -2.0081   -6.3198 H         1 <0>         0.4343
     36 H16         4.7994   -1.0134   -4.0021 H         1 <0>         0.1434
     37 H17         5.2761   -2.3770   -5.0422 H         1 <0>         0.1360
     38 H18         6.4443   -0.2951   -5.7130 H         1 <0>         0.1108
     39 H19         5.3509   -0.8573   -7.0002 H         1 <0>         0.0818
     40 H20         4.8742    0.5062   -5.9601 H         1 <0>         0.0802
     41 H21        -1.3679   -3.5243   -8.1130 H         1 <0>         0.0805
     42 H22        -0.4365   -5.0027   -7.7739 H         1 <0>         0.0744
     43 H23        -2.0776   -4.8132   -7.1112 H         1 <0>         0.0778
     44 H24        -1.9911   -1.1002   -2.9728 H         1 <0>         0.0835
     45 H25        -2.7808   -2.6954   -2.9721 H         1 <0>         0.0821
     46 H26        -1.3783   -2.3962   -1.9177 H         1 <0>         0.0796
     47 H27         2.8554   -0.7458   -5.3570 H         1 <0>         0.4287
@<TRIPOS>BOND
     1    1    2 1
     2    1   23 1
     3    1   24 1
     4    1   25 1
     5    2    3 1
     6    2   26 1
     7    2   27 1
     8    3    4 1
     9    3    5 1
    10    3    6 1
    11    5   28 1
    12    5   29 1
    13    5   30 1
    14    6    7 1
    15    6   31 1
    16    6   32 1
    17    7   16 am
    18    7    8 1
    19    8   13 ar
    20    8    9 ar
    21    9   10 ar
    22    9   22 1
    23   10   11 ar
    24   10   33 1
    25   11   12 ar
    26   11   21 1
    27   12   13 ar
    28   12   34 1
    29   13   14 1
    30   14   15 1
    31   14   16 1
    32   14   18 1
    33   16   17 2
    34   18   19 1
    35   18   35 1
    36   18   47 1
    37   19   20 1
    38   19   36 1
    39   19   37 1
    40   20   38 1
    41   20   39 1
    42   20   40 1
    43   21   41 1
    44   21   42 1
    45   21   43 1
    46   22   44 1
    47   22   45 1
    48   22   46 1
@<TRIPOS>MOLECULE
ZINC50545270
   40    42     0     0     0
SMALL
USER_CHARGES

@<TRIPOS>ATOM
      1 C1         -0.0184    1.5028    0.0103 C.3       1 <0>        -0.1262
      2 C2          0.0021   -0.0041    0.0020 C.ar      1 <0>        -0.1114
      3 C3          0.0058   -0.6889   -1.1986 C.ar      1 <0>        -0.0664
      4 C4          0.0246   -2.0709   -1.2065 C.ar      1 <0>        -0.1754
      5 C5          0.0396   -2.7700   -0.0137 C.ar      1 <0>        -0.0681
      6 C6          0.0364   -2.0876    1.1878 C.ar      1 <0>        -0.1462
      7 C7          0.0229   -0.7029    1.1969 C.ar      1 <0>         0.1364
      8 F1          0.0245   -0.0345    2.3710 F         1 <0>        -0.1207
      9 C8          0.0281   -2.8164   -2.5162 C.3       1 <0>         0.0447
     10 N1          1.4141   -3.0397   -2.9488 N.4       1 <0>        -0.5085
     11 C9          1.4175   -3.7664   -4.2255 C.3       1 <0>         0.0868
     12 H1          0.8411   -4.6857   -4.1219 H         1 <0>         0.1498
     13 C10         0.7905   -2.8909   -5.3123 C.3       1 <0>        -0.1806
     14 C11         2.8358   -4.1032   -4.6079 C.ar      1 <0>        -0.1389
     15 C12         3.8450   -3.1829   -4.3938 C.ar      1 <0>        -0.1084
     16 C13         5.1475   -3.4875   -4.7425 C.ar      1 <0>        -0.0907
     17 C14         5.4445   -4.7167   -5.3083 C.ar      1 <0>         0.0647
     18 C15         4.4279   -5.6438   -5.5241 C.ar      1 <0>         0.0486
     19 C16         3.1256   -5.3339   -5.1668 C.ar      1 <0>        -0.0740
     20 O1          4.9703   -6.7634   -6.0857 O.3       1 <0>        -0.2997
     21 C17         6.2577   -6.3570   -6.5867 C.3       1 <0>         0.2113
     22 O2          6.6240   -5.2555   -5.7348 O.3       1 <0>        -0.2987
     23 H2          1.0042    1.8801    0.0026 H         1 <0>         0.0834
     24 H3         -0.5455    1.8639   -0.8728 H         1 <0>         0.0801
     25 H4         -0.5286    1.8543    0.9071 H         1 <0>         0.0792
     26 H5         -0.0063   -0.1438   -2.1309 H         1 <0>         0.1421
     27 H6          0.0536   -3.8499   -0.0211 H         1 <0>         0.1426
     28 H7          0.0479   -2.6339    2.1193 H         1 <0>         0.1498
     29 H8         -0.4721   -3.7765   -2.3892 H         1 <0>         0.1424
     30 H9         -0.4976   -2.2297   -3.2696 H         1 <0>         0.1428
     31 H10         1.8771   -2.1510   -3.0664 H         1 <0>         0.4242
     32 H11         1.3669   -1.9716   -5.4159 H         1 <0>         0.0845
     33 H12         0.7930   -3.4301   -6.2596 H         1 <0>         0.1090
     34 H13        -0.2353   -2.6473   -5.0357 H         1 <0>         0.0871
     35 H14         3.6152   -2.2239   -3.9536 H         1 <0>         0.1347
     36 H15         5.9340   -2.7666   -4.5741 H         1 <0>         0.1494
     37 H16         2.3359   -6.0526   -5.3288 H         1 <0>         0.1476
     38 H17         6.9786   -7.1693   -6.4939 H         1 <0>         0.1448
     39 H18         6.1793   -6.0298   -7.6235 H         1 <0>         0.0974
     40 H19         1.9007   -3.5828   -2.2514 H         1 <0>         0.4307
@<TRIPOS>BOND
     1    1    2 1
     2    1   23 1
     3    1   24 1
     4    1   25 1
     5    2    7 ar
     6    2    3 ar
     7    3    4 ar
     8    3   26 1
     9    4    5 ar
    10    4    9 1
    11    5    6 ar
    12    5   27 1
    13    6    7 ar
    14    6   28 1
    15    7    8 1
    16    9   10 1
    17    9   29 1
    18    9   30 1
    19   10   11 1
    20   10   31 1
    21   10   40 1
    22   11   12 1
    23   11   13 1
    24   11   14 1
    25   13   32 1
    26   13   33 1
    27   13   34 1
    28   14   19 ar
    29   14   15 ar
    30   15   16 ar
    31   15   35 1
    32   16   17 ar
    33   16   36 1
    34   17   22 1
    35   17   18 ar
    36   18   19 ar
    37   18   20 1
    38   19   37 1
    39   20   21 1
    40   21   22 1
    41   21   38 1
    42   21   39 1
@<TRIPOS>MOLECULE
ZINC20097064
   45    46     0     0     0
SMALL
USER_CHARGES
2-[(1R)-1-[[(1S)-1-(2-methoxyphenyl)ethyl]amino]ethyl]-5-methyl-phenol
@<TRIPOS>ATOM
      1 C1          7.7925    0.3406    4.4393 C.3       1 <0>        -0.1330
      2 C2          6.9615    1.2543    3.5757 C.ar      1 <0>        -0.0165
      3 C3          6.2848    0.7450    2.4825 C.ar      1 <0>        -0.1471
      4 C4          5.5170    1.5795    1.6917 C.ar      1 <0>        -0.0914
      5 C5          5.4325    2.9268    1.9858 C.ar      1 <0>        -0.1872
      6 C6          6.1103    3.4401    3.0818 C.ar      1 <0>         0.1963
      7 C7          6.8760    2.5995    3.8771 C.ar      1 <0>        -0.2048
      8 O1          6.0242    4.7640    3.3765 O.3       1 <0>        -0.5101
      9 C8          4.5996    3.8369    1.1203 C.3       1 <0>         0.1013
     10 H1          4.1004    4.5908    1.7467 H         1 <0>         0.1399
     11 C9          5.4932    4.5015    0.0712 C.3       1 <0>        -0.1727
     12 N1          3.5552    3.0524    0.4480 N.4       1 <0>        -0.5463
     13 C10         2.3890    3.8886    0.1337 C.3       1 <0>         0.0956
     14 H2          2.7532    4.9053   -0.0753 H         1 <0>         0.1421
     15 C11         1.6576    3.3088   -1.0786 C.3       1 <0>        -0.1756
     16 C12         1.4566    3.9155    1.3173 C.ar      1 <0>        -0.1668
     17 C13         1.5338    2.9284    2.2809 C.ar      1 <0>        -0.0910
     18 C14         0.6790    2.9528    3.3672 C.ar      1 <0>        -0.1352
     19 C15        -0.2589    3.9616    3.4894 C.ar      1 <0>        -0.0564
     20 C16        -0.3363    4.9539    2.5317 C.ar      1 <0>        -0.1921
     21 C17         0.5205    4.9317    1.4405 C.ar      1 <0>         0.1580
     22 O2          0.4429    5.9041    0.4943 O.3       1 <0>        -0.3158
     23 C18        -0.5449    6.9187    0.6863 C.3       1 <0>         0.0187
     24 H3          7.7390   -0.6851    4.0454 H         1 <0>         0.0752
     25 H4          7.4067    0.3585    5.4693 H         1 <0>         0.0811
     26 H5          8.8383    0.6815    4.4335 H         1 <0>         0.0815
     27 H6          6.3529   -0.3071    2.2486 H         1 <0>         0.1352
     28 H7          4.9862    1.1786    0.8409 H         1 <0>         0.1225
     29 H8          7.4044    2.9967    4.7311 H         1 <0>         0.1385
     30 H9          6.5621    5.1701    4.2459 H         1 <0>         0.4520
     31 H10         4.8852    5.1658   -0.5605 H         1 <0>         0.0809
     32 H11         5.9616    3.7277   -0.5548 H         1 <0>         0.0819
     33 H12         6.2752    5.0888    0.5747 H         1 <0>         0.1055
     34 H13         3.9545    2.6373   -0.4892 H         1 <0>         0.4448
     35 H14         0.7844    3.9349   -1.3139 H         1 <0>         0.1085
     36 H15         1.3244    2.2855   -0.8509 H         1 <0>         0.0814
     37 H16         2.3382    3.2891   -1.9425 H         1 <0>         0.0851
     38 H17         2.2622    2.1368    2.1853 H         1 <0>         0.1195
     39 H18         0.7409    2.1802    4.1193 H         1 <0>         0.1369
     40 H19        -0.9285    3.9760    4.3366 H         1 <0>         0.1389
     41 H20        -1.0660    5.7441    2.6299 H         1 <0>         0.1420
     42 H21        -0.4996    7.6367   -0.1458 H         1 <0>         0.1123
     43 H22        -0.3525    7.4431    1.6340 H         1 <0>         0.0641
     44 H23        -1.5429    6.4573    0.7186 H         1 <0>         0.0650
     45 H24         3.2335    2.2310    1.1051 H         1 <0>         0.4370
@<TRIPOS>BOND
     1    1    2 1
     2    1   24 1
     3    1   25 1
     4    1   26 1
     5    2    7 ar
     6    2    3 ar
     7    3    4 ar
     8    3   27 1
     9    4    5 ar
    10    4   28 1
    11    5    6 ar
    12    5    9 1
    13    6    7 ar
    14    6    8 1
    15    7   29 1
    16    8   30 1
    17    9   10 1
    18    9   11 1
    19    9   12 1
    20   11   31 1
    21   11   32 1
    22   11   33 1
    23   12   13 1
    24   12   34 1
    25   12   45 1
    26   13   14 1
    27   13   15 1
    28   13   16 1
    29   15   35 1
    30   15   36 1
    31   15   37 1
    32   16   21 ar
    33   16   17 ar
    34   17   18 ar
    35   17   38 1
    36   18   19 ar
    37   18   39 1
    38   19   20 ar
    39   19   40 1
    40   20   21 ar
    41   20   41 1
    42   21   22 1
    43   22   23 1
    44   23   42 1
    45   23   43 1
    46   23   44 1
@<TRIPOS>MOLECULE
ZINC35010460
   50    51     0     0     0
SMALL
USER_CHARGES

@<TRIPOS>ATOM
      1 C1         -0.0187    1.5258    0.0104 C.3       1 <0>        -0.1714
      2 C2          0.0021   -0.0041    0.0020 C.3       1 <0>         0.1089
      3 N1          0.6878   -0.4765   -1.2033 N.am      1 <0>        -0.7030
      4 C3          0.8268   -1.7986   -1.4250 C.2       1 <0>         0.4964
      5 O1          0.3843   -2.5972   -0.6267 O.2       1 <0>        -0.5279
      6 C4          1.5322   -2.2846   -2.6649 C.3       1 <0>        -0.0362
      7 N2          1.5521   -3.7535   -2.6730 N.4       1 <0>        -0.4959
      8 C5          2.2397   -4.2272   -3.8816 C.3       1 <0>         0.0291
      9 H1          3.2318   -3.7788   -3.9346 H         1 <0>         0.1455
     10 C6          1.4323   -3.8266   -5.1179 C.3       1 <0>        -0.1435
     11 C7          0.0397   -4.4560   -5.0435 C.3       1 <0>        -0.1374
     12 C8          0.1708   -5.9795   -4.9917 C.3       1 <0>        -0.1310
     13 C9          0.9782   -6.3801   -3.7554 C.3       1 <0>        -0.1345
     14 C10         2.3708   -5.7507   -3.8298 C.3       1 <0>        -0.1016
     15 H2          2.8810   -6.1022   -4.7265 H         1 <0>         0.1226
     16 C11         3.1782   -6.1514   -2.5935 C.3       1 <0>        -0.0978
     17 C12         4.5708   -5.5219   -2.6678 C.3       1 <0>        -0.1227
     18 C13         5.3782   -5.9226   -1.4316 C.3       1 <0>        -0.1226
     19 C14         5.5093   -7.4461   -1.3797 C.3       1 <0>        -0.1249
     20 C15         4.1167   -8.0755   -1.3053 C.3       1 <0>        -0.1238
     21 C16         3.3093   -7.6749   -2.5416 C.3       1 <0>        -0.1140
     22 H3          1.0039    1.9031    0.0027 H         1 <0>         0.0669
     23 H4         -0.5459    1.8868   -0.8726 H         1 <0>         0.0669
     24 H5         -0.5289    1.8773    0.9072 H         1 <0>         0.0857
     25 H6          0.5293   -0.3651    0.8851 H         1 <0>         0.0798
     26 H7         -1.0205   -0.3814    0.0098 H         1 <0>         0.0798
     27 H8          1.0417    0.1622   -1.8418 H         1 <0>         0.4111
     28 H9          1.0050   -1.9236   -3.5480 H         1 <0>         0.1625
     29 H10         2.5548   -1.9074   -2.6726 H         1 <0>         0.1624
     30 H11         2.0401   -4.0877   -1.8555 H         1 <0>         0.4317
     31 H12         1.3389   -2.7412   -5.1548 H         1 <0>         0.0881
     32 H13         1.9425   -4.1781   -6.0147 H         1 <0>         0.1159
     33 H14        -0.4705   -4.1045   -4.1467 H         1 <0>         0.0557
     34 H15        -0.5355   -4.1706   -5.9243 H         1 <0>         0.0937
     35 H16        -0.8213   -6.4279   -4.9387 H         1 <0>         0.0813
     36 H17         0.6810   -6.3310   -5.8885 H         1 <0>         0.0805
     37 H18         0.4680   -6.0286   -2.8586 H         1 <0>         0.0589
     38 H19         1.0716   -7.4655   -3.7185 H         1 <0>         0.0969
     39 H20         2.6680   -5.7999   -1.6967 H         1 <0>         0.0652
     40 H21         5.0810   -5.8735   -3.5646 H         1 <0>         0.0774
     41 H22         4.4774   -4.4366   -2.7048 H         1 <0>         0.0539
     42 H23         6.3703   -5.4742   -1.4845 H         1 <0>         0.0693
     43 H24         4.8680   -5.5711   -0.5348 H         1 <0>         0.0620
     44 H25         6.0194   -7.7976   -2.2765 H         1 <0>         0.0658
     45 H26         6.0845   -7.7315   -0.4990 H         1 <0>         0.0677
     46 H27         4.2101   -9.1609   -1.2684 H         1 <0>         0.0701
     47 H28         3.6065   -7.7240   -0.4085 H         1 <0>         0.0629
     48 H29         2.3172   -8.1233   -2.4886 H         1 <0>         0.0711
     49 H30         3.8194   -8.0264   -3.4384 H         1 <0>         0.0720
     50 H31         0.6055   -4.1027   -2.6658 H         1 <0>         0.4305
@<TRIPOS>BOND
     1    1    2 1
     2    1   22 1
     3    1   23 1
     4    1   24 1
     5    2    3 1
     6    2   25 1
     7    2   26 1
     8    3    4 am
     9    3   27 1
    10    4    5 2
    11    4    6 1
    12    6    7 1
    13    6   28 1
    14    6   29 1
    15    7    8 1
    16    7   30 1
    17    7   50 1
    18    8    9 1
    19    8   14 1
    20    8   10 1
    21   10   11 1
    22   10   31 1
    23   10   32 1
    24   11   12 1
    25   11   33 1
    26   11   34 1
    27   12   13 1
    28   12   35 1
    29   12   36 1
    30   13   14 1
    31   13   37 1
    32   13   38 1
    33   14   15 1
    34   14   16 1
    35   16   21 1
    36   16   17 1
    37   16   39 1
    38   17   18 1
    39   17   40 1
    40   17   41 1
    41   18   19 1
    42   18   42 1
    43   18   43 1
    44   19   20 1
    45   19   44 1
    46   19   45 1
    47   20   21 1
    48   20   46 1
    49   20   47 1
    50   21   48 1
    51   21   49 1
@<TRIPOS>MOLECULE
ZINC37863307
   51    52     0     0     0
SMALL
USER_CHARGES

@<TRIPOS>ATOM
      1 C1         -0.0184    1.5028    0.0103 C.3       1 <0>        -0.1200
      2 C2          0.0021   -0.0041    0.0020 C.ar      1 <0>        -0.0401
      3 C3          0.0058   -0.6882   -1.1995 C.ar      1 <0>        -0.1513
      4 C4          0.0250   -2.0707   -1.2105 C.ar      1 <0>        -0.0358
      5 C5          0.0400   -2.7719   -0.0203 C.ar      1 <0>        -0.1534
      6 C6          0.0364   -2.0878    1.1866 C.ar      1 <0>         0.1262
      7 C7          0.0229   -0.7006    1.1948 C.ar      1 <0>        -0.2176
      8 O1          0.0512   -2.7754    2.3587 O.3       1 <0>        -0.3021
      9 C8          0.0463   -2.0054    3.5626 C.3       1 <0>         0.0306
     10 C9          0.0647   -2.9457    4.7694 C.3       1 <0>         0.0869
     11 H1         -0.7680   -3.6454    4.6976 H         1 <0>         0.1353
     12 C10        -0.0662   -2.1274    6.0555 C.3       1 <0>        -0.0452
     13 N1         -0.0485   -3.0302    7.2142 N.4       1 <0>        -0.5012
     14 C11        -0.1741   -2.2445    8.4491 C.3       1 <0>         0.0211
     15 H2          0.6074   -1.4853    8.4777 H         1 <0>         0.1415
     16 C12        -1.5453   -1.5667    8.4850 C.3       1 <0>        -0.1410
     17 C13        -1.6762   -0.7484    9.7711 C.3       1 <0>        -0.1200
     18 C14        -1.5329   -1.6737   10.9811 C.3       1 <0>        -0.1271
     19 C15        -0.1617   -2.3515   10.9452 C.3       1 <0>        -0.0862
     20 H3         -0.0596   -3.0108   11.8073 H         1 <0>         0.0933
     21 C16        -0.0308   -3.1699    9.6591 C.3       1 <0>        -0.1365
     22 C17         0.9353   -1.2858   10.9855 C.3       1 <0>        -0.1621
     23 O2          1.2958   -3.6710    4.7894 O.3       1 <0>        -0.5433
     24 C18         0.0290   -2.8132   -2.5219 C.3       1 <0>        -0.1212
     25 H4          1.0042    1.8801    0.0026 H         1 <0>         0.0759
     26 H5         -0.5455    1.8639   -0.8728 H         1 <0>         0.0735
     27 H6         -0.5286    1.8543    0.9071 H         1 <0>         0.0660
     28 H7         -0.0067   -0.1418   -2.1310 H         1 <0>         0.1284
     29 H8          0.0543   -3.8518   -0.0294 H         1 <0>         0.1320
     30 H9          0.0245   -0.1656    2.1331 H         1 <0>         0.1225
     31 H10         0.9278   -1.3648    3.5877 H         1 <0>         0.0760
     32 H11        -0.8520   -1.3890    3.5959 H         1 <0>         0.0807
     33 H12         0.7666   -1.4278    6.1273 H         1 <0>         0.1391
     34 H13        -1.0052   -1.5742    6.0402 H         1 <0>         0.1471
     35 H14        -0.8193   -3.6779    7.1478 H         1 <0>         0.4282
     36 H15        -1.6474   -0.9075    7.6230 H         1 <0>         0.0854
     37 H16        -2.3268   -2.3260    8.4563 H         1 <0>         0.0887
     38 H17        -0.8947    0.0109    9.7998 H         1 <0>         0.0776
     39 H18        -2.6530   -0.2655    9.7967 H         1 <0>         0.0852
     40 H19        -1.6261   -1.0907   11.8974 H         1 <0>         0.0804
     41 H20        -2.3144   -2.4330   10.9525 H         1 <0>         0.0714
     42 H21        -0.8124   -3.9291    9.6304 H         1 <0>         0.0889
     43 H22         0.9460   -3.6528    9.6335 H         1 <0>         0.0890
     44 H23         0.8421   -0.7028   11.9017 H         1 <0>         0.0697
     45 H24         1.9122   -1.7687   10.9599 H         1 <0>         0.0616
     46 H25         0.8332   -0.6266   10.1234 H         1 <0>         0.0559
     47 H26         2.0814   -3.1106    4.8523 H         1 <0>         0.3897
     48 H27         1.0575   -2.9779   -2.8430 H         1 <0>         0.0782
     49 H28        -0.4710   -3.7737   -2.3971 H         1 <0>         0.0716
     50 H29        -0.4968   -2.2250   -3.2740 H         1 <0>         0.0735
     51 H30         0.8208   -3.5423    7.2284 H         1 <0>         0.4329
@<TRIPOS>BOND
     1    1    2 1
     2    1   25 1
     3    1   26 1
     4    1   27 1
     5    2    7 ar
     6    2    3 ar
     7    3    4 ar
     8    3   28 1
     9    4    5 ar
    10    4   24 1
    11    5    6 ar
    12    5   29 1
    13    6    7 ar
    14    6    8 1
    15    7   30 1
    16    8    9 1
    17    9   10 1
    18    9   31 1
    19    9   32 1
    20   10   11 1
    21   10   12 1
    22   10   23 1
    23   12   13 1
    24   12   33 1
    25   12   34 1
    26   13   14 1
    27   13   35 1
    28   13   51 1
    29   14   15 1
    30   14   21 1
    31   14   16 1
    32   16   17 1
    33   16   36 1
    34   16   37 1
    35   17   18 1
    36   17   38 1
    37   17   39 1
    38   18   19 1
    39   18   40 1
    40   18   41 1
    41   19   20 1
    42   19   21 1
    43   19   22 1
    44   21   42 1
    45   21   43 1
    46   22   44 1
    47   22   45 1
    48   22   46 1
    49   23   47 1
    50   24   48 1
    51   24   49 1
    52   24   50 1
@<TRIPOS>MOLECULE
ZINC49129479
   43    43     0     0     0
SMALL
USER_CHARGES

@<TRIPOS>ATOM
      1 C1         -0.0810    1.5263    0.0774 C.3       1 <0>        -0.1568
      2 C2         -0.0573    0.0001    0.1823 C.3       1 <0>        -0.1275
      3 C3         -1.4784   -0.5442    0.0231 C.3       1 <0>         0.1703
      4 C4         -2.3706    0.0291    1.1259 C.3       1 <0>        -0.1699
      5 C5         -2.0309   -0.1355   -1.3439 C.3       1 <0>        -0.1688
      6 N1         -1.4557   -2.0055    0.1235 N.am      1 <0>        -0.6939
      7 C6         -2.6015   -2.7065    0.0126 C.2       1 <0>         0.5080
      8 O1         -3.6513   -2.1275   -0.1703 O.2       1 <0>        -0.5211
      9 C7         -2.5781   -4.2098    0.1160 C.3       1 <0>        -0.0021
     10 H1         -2.1845   -4.5010    1.0898 H         1 <0>         0.1625
     11 C8         -1.6859   -4.7830   -0.9869 C.3       1 <0>        -0.1778
     12 N2         -3.9425   -4.7323   -0.0369 N.4       1 <0>        -0.4945
     13 C9         -3.9424   -6.1807    0.2083 C.3       1 <0>         0.1314
     14 H2         -3.2103   -6.6593   -0.4422 H         1 <0>         0.1618
     15 C10        -5.3329   -6.7477   -0.0851 C.3       1 <0>        -0.1809
     16 C11        -3.5850   -6.4465    1.6479 C.2       1 <0>        -0.2547
     17 C12        -2.7909   -7.4152    2.1650 C.2       1 <0>        -0.0692
     18 C13        -2.6029   -7.4688    3.5338 C.2       1 <0>        -0.1540
     19 C14        -3.2195   -6.5496    4.3182 C.2       1 <0>        -0.0741
     20 S1         -4.0918   -5.5621    3.1136 S.3       1 <0>         0.1059
     21 Cl1        -3.1679   -6.3747    6.0446 Cl        1 <0>         0.0531
     22 H3          0.9314    1.9141    0.1908 H         1 <0>         0.0656
     23 H4         -0.4746    1.8175   -0.8965 H         1 <0>         0.0637
     24 H5         -0.7166    1.9347    0.8630 H         1 <0>         0.0637
     25 H6          0.5783   -0.4083   -0.6034 H         1 <0>         0.0724
     26 H7          0.3363   -0.2911    1.1561 H         1 <0>         0.0722
     27 H8         -2.3874    1.1164    1.0512 H         1 <0>         0.0783
     28 H9         -3.3829   -0.3587    1.0125 H         1 <0>         0.0760
     29 H10        -1.9770   -0.2621    2.0998 H         1 <0>         0.0585
     30 H11        -1.3952   -0.5438   -2.1296 H         1 <0>         0.0586
     31 H12        -3.0432   -0.5232   -1.4573 H         1 <0>         0.0759
     32 H13        -2.0477    0.9519   -1.4186 H         1 <0>         0.0780
     33 H14        -0.6160   -2.4687    0.2699 H         1 <0>         0.4077
     34 H15        -2.1341   -4.5794   -1.9594 H         1 <0>         0.0927
     35 H16        -0.7014   -4.3181   -0.9361 H         1 <0>         0.1111
     36 H17        -1.5866   -5.8599   -0.8508 H         1 <0>         0.0972
     37 H18        -4.5526   -4.2790    0.6267 H         1 <0>         0.4316
     38 H19        -5.3106   -7.8331    0.0122 H         1 <0>         0.1148
     39 H20        -6.0508   -6.3341    0.6232 H         1 <0>         0.0866
     40 H21        -5.6279   -6.4798   -1.0996 H         1 <0>         0.0932
     41 H22        -2.3122   -8.1349    1.5175 H         1 <0>         0.1553
     42 H23        -1.9753   -8.2309    3.9718 H         1 <0>         0.1603
     43 H24        -4.2696   -4.5498   -0.9738 H         1 <0>         0.4387
@<TRIPOS>BOND
     1    1    2 1
     2    1   22 1
     3    1   23 1
     4    1   24 1
     5    2    3 1
     6    2   25 1
     7    2   26 1
     8    3    4 1
     9    3    5 1
    10    3    6 1
    11    4   27 1
    12    4   28 1
    13    4   29 1
    14    5   30 1
    15    5   31 1
    16    5   32 1
    17    6    7 am
    18    6   33 1
    19    7    8 2
    20    7    9 1
    21    9   10 1
    22    9   11 1
    23    9   12 1
    24   11   34 1
    25   11   35 1
    26   11   36 1
    27   12   13 1
    28   12   37 1
    29   12   43 1
    30   13   14 1
    31   13   15 1
    32   13   16 1
    33   15   38 1
    34   15   39 1
    35   15   40 1
    36   16   20 1
    37   16   17 2
    38   17   18 1
    39   17   41 1
    40   18   19 2
    41   18   42 1
    42   19   20 1
    43   19   21 1
@<TRIPOS>MOLECULE
ZINC54561420
   57    58     0     0     0
SMALL
USER_CHARGES

@<TRIPOS>ATOM
      1 C1         -0.0308    0.5764   -1.9649 C.3       1 <0>        -0.1530
      2 C2         -0.0984   -0.8969   -1.5577 C.3       1 <0>        -0.0921
      3 C3          0.8030   -1.1325   -0.3441 C.3       1 <0>        -0.1528
      4 C4         -1.5407   -1.2616   -1.2003 C.3       1 <0>        -0.0835
      5 H1         -1.8779   -0.6396   -0.3711 H         1 <0>         0.0650
      6 C5         -2.4420   -1.0260   -2.4140 C.3       1 <0>        -0.1185
      7 C6         -3.8843   -1.3907   -2.0566 C.3       1 <0>        -0.1624
      8 C7         -3.9519   -2.8640   -1.6494 C.3       1 <0>         0.1036
      9 H2         -4.9794   -3.1238   -1.3948 H         1 <0>         0.0472
     10 C8         -3.0505   -3.0996   -0.4358 C.3       1 <0>        -0.1036
     11 H3         -3.0987   -4.1492   -0.1457 H         1 <0>         0.0995
     12 C9         -1.6082   -2.7349   -0.7932 C.3       1 <0>        -0.1066
     13 C10        -3.5238   -2.2266    0.7282 C.3       1 <0>        -0.0205
     14 N1         -4.8636   -2.6569    1.1498 N.4       1 <0>        -0.3817
     15 C11        -4.7922   -4.0207    1.6909 C.3       1 <0>        -0.0172
     16 C12        -6.2049   -4.5231    1.9956 C.3       1 <0>         0.0474
     17 O1         -6.9577   -4.5924    0.7830 O.3       1 <0>        -0.5800
     18 C13        -5.3676   -1.7450    2.1853 C.3       1 <0>         0.0192
     19 C14        -5.5613   -0.3504    1.5865 C.3       1 <0>        -0.1405
     20 C15        -6.0862    0.5993    2.6650 C.3       1 <0>        -0.1164
     21 C16        -5.0784    0.6732    3.8139 C.3       1 <0>        -0.1310
     22 C17        -4.8847   -0.7214    4.4127 C.3       1 <0>        -0.1171
     23 C18        -4.3598   -1.6711    3.3342 C.3       1 <0>        -0.1419
     24 O2         -3.5098   -3.6794   -2.7365 O.3       1 <0>        -0.5493
     25 H4          0.9967    0.8362   -2.2195 H         1 <0>         0.0590
     26 H5         -0.6730    0.7442   -2.8295 H         1 <0>         0.0583
     27 H6         -0.3680    1.1984   -1.1357 H         1 <0>         0.0532
     28 H7          0.2388   -1.5188   -2.3869 H         1 <0>         0.0746
     29 H8          0.4657   -0.5105    0.4851 H         1 <0>         0.0527
     30 H9          0.7548   -2.1820   -0.0540 H         1 <0>         0.0565
     31 H10         1.8305   -0.8726   -0.5987 H         1 <0>         0.0597
     32 H11        -2.3939    0.0236   -2.7040 H         1 <0>         0.0739
     33 H12        -2.1048   -1.6479   -3.2432 H         1 <0>         0.0780
     34 H13        -4.2215   -0.7688   -1.2274 H         1 <0>         0.0646
     35 H14        -4.5264   -1.2229   -2.9212 H         1 <0>         0.0792
     36 H15        -1.2710   -3.3568   -1.6224 H         1 <0>         0.0932
     37 H16        -0.9661   -2.9027    0.0715 H         1 <0>         0.0766
     38 H17        -2.8305   -2.3271    1.5632 H         1 <0>         0.1383
     39 H18        -3.5603   -1.1848    0.4096 H         1 <0>         0.1393
     40 H19        -4.3229   -4.6780    0.9589 H         1 <0>         0.1403
     41 H20        -4.2021   -4.0175    2.6073 H         1 <0>         0.1445
     42 H21        -6.1488   -5.5143    2.4456 H         1 <0>         0.0957
     43 H22        -6.6931   -3.8370    2.6877 H         1 <0>         0.0709
     44 H23        -7.8655   -4.9040    0.9009 H         1 <0>         0.4088
     45 H24        -6.3214   -2.1144    2.5619 H         1 <0>         0.1374
     46 H25        -4.6075    0.0190    1.2099 H         1 <0>         0.0857
     47 H26        -6.2793   -0.4030    0.7680 H         1 <0>         0.0860
     48 H27        -6.2242    1.5928    2.2384 H         1 <0>         0.0852
     49 H28        -7.0400    0.2299    3.0416 H         1 <0>         0.0744
     50 H29        -4.1246    1.0426    3.4373 H         1 <0>         0.0701
     51 H30        -5.4523    1.3498    4.5823 H         1 <0>         0.0800
     52 H31        -4.1667   -0.6688    5.2312 H         1 <0>         0.0851
     53 H32        -5.8385   -1.0908    4.7893 H         1 <0>         0.0739
     54 H33        -4.2218   -2.6646    3.7608 H         1 <0>         0.0859
     55 H34        -3.4060   -1.3017    2.9576 H         1 <0>         0.0888
     56 H35        -4.0367   -3.5813   -3.5414 H         1 <0>         0.3905
     57 H36        -5.4868   -2.6421    0.3563 H         1 <0>         0.4262
@<TRIPOS>BOND
     1    1    2 1
     2    1   25 1
     3    1   26 1
     4    1   27 1
     5    2    3 1
     6    2    4 1
     7    2   28 1
     8    3   29 1
     9    3   30 1
    10    3   31 1
    11    4    5 1
    12    4   12 1
    13    4    6 1
    14    6    7 1
    15    6   32 1
    16    6   33 1
    17    7    8 1
    18    7   34 1
    19    7   35 1
    20    8    9 1
    21    8   10 1
    22    8   24 1
    23   10   11 1
    24   10   12 1
    25   10   13 1
    26   12   36 1
    27   12   37 1
    28   13   14 1
    29   13   38 1
    30   13   39 1
    31   14   15 1
    32   14   18 1
    33   14   57 1
    34   15   16 1
    35   15   40 1
    36   15   41 1
    37   16   17 1
    38   16   42 1
    39   16   43 1
    40   17   44 1
    41   18   23 1
    42   18   19 1
    43   18   45 1
    44   19   20 1
    45   19   46 1
    46   19   47 1
    47   20   21 1
    48   20   48 1
    49   20   49 1
    50   21   22 1
    51   21   50 1
    52   21   51 1
    53   22   23 1
    54   22   52 1
    55   22   53 1
    56   23   54 1
    57   23   55 1
    58   24   56 1
@<TRIPOS>MOLECULE
ZINC20386198
   36    36     0     0     0
SMALL
USER_CHARGES
(2S)-2-[4-(aminomethyl)phenoxy]-N-(methylcarbamoyl)propanamide
@<TRIPOS>ATOM
      1 C1         -2.3650   -0.1170   -0.8745 C.3       1 <0>        -0.1820
      2 C2         -2.4274    0.9456    0.2246 C.3       1 <0>         0.0696
      3 H1         -2.5375    0.4937    1.2214 H         1 <0>         0.1088
      4 C3         -1.1873    1.8000    0.1683 C.2       1 <0>         0.5219
      5 O1         -1.2818    2.9938   -0.0209 O.2       1 <0>        -0.4406
      6 N1          0.0267    1.2371    0.3283 N.am      1 <0>        -0.6993
      7 C4          1.1361    2.0004    0.2725 C.2       1 <0>         0.6941
      8 O2          1.0414    3.1971    0.0828 O.2       1 <0>        -0.5298
      9 N2          2.3505    1.4366    0.4269 N.am      1 <0>        -0.7487
     10 C5          3.5564    2.2662    0.3662 C.3       1 <0>         0.1016
     11 O3         -3.5807    1.7664    0.0286 O.3       1 <0>        -0.2813
     12 C6         -4.7543    1.3144    0.5435 C.ar      1 <0>         0.1721
     13 C7         -5.8876    2.1132    0.4956 C.ar      1 <0>        -0.1459
     14 C8         -7.0809    1.6489    1.0141 C.ar      1 <0>        -0.0499
     15 C9         -7.1435    0.3942    1.5915 C.ar      1 <0>        -0.2107
     16 C10        -6.0141   -0.4016    1.6456 C.ar      1 <0>        -0.0488
     17 C11        -4.8199    0.0556    1.1230 C.ar      1 <0>        -0.2148
     18 C12        -8.4450   -0.1071    2.1624 C.3       1 <0>         0.0582
     19 N3         -8.5402    0.2787    3.5766 N.4       1 <0>        -0.6862
     20 H2         -3.2702   -0.7406   -0.8334 H         1 <0>         0.0812
     21 H3         -1.4773   -0.7488   -0.7237 H         1 <0>         0.0882
     22 H4         -2.3027    0.3745   -1.8566 H         1 <0>         0.0851
     23 H5          0.1122    0.1547    0.5044 H         1 <0>         0.4330
     24 H6          2.4361    0.3534    0.5985 H         1 <0>         0.4213
     25 H7          4.4443    1.6337    0.5130 H         1 <0>         0.0839
     26 H8          3.5158    3.0304    1.1563 H         1 <0>         0.0618
     27 H9          3.6145    2.7574   -0.6163 H         1 <0>         0.0624
     28 H10        -5.8380    3.0953    0.0490 H         1 <0>         0.1460
     29 H11        -7.9646    2.2684    0.9724 H         1 <0>         0.1393
     30 H12        -6.0658   -1.3816    2.0965 H         1 <0>         0.1347
     31 H13        -3.9381   -0.5666    1.1652 H         1 <0>         0.1423
     32 H14        -9.2842    0.3342    1.6046 H         1 <0>         0.1336
     33 H15        -8.4845   -1.2031    2.0779 H         1 <0>         0.1326
     34 H16        -9.4902   -0.0872    3.9933 H         1 <0>         0.4576
     35 H17        -8.5007    1.3747    3.6611 H         1 <0>         0.4551
     36 H18        -7.7010   -0.1626    4.1343 H         1 <0>         0.4536
@<TRIPOS>BOND
     1    1    2 1
     2    1   20 1
     3    1   21 1
     4    1   22 1
     5    2    3 1
     6    2    4 1
     7    2   11 1
     8    4    5 2
     9    4    6 am
    10    6    7 am
    11    6   23 1
    12    7    8 2
    13    7    9 am
    14    9   10 1
    15    9   24 1
    16   10   25 1
    17   10   26 1
    18   10   27 1
    19   11   12 1
    20   12   17 ar
    21   12   13 ar
    22   13   14 ar
    23   13   28 1
    24   14   15 ar
    25   14   29 1
    26   15   16 ar
    27   15   18 1
    28   16   17 ar
    29   16   30 1
    30   17   31 1
    31   18   19 1
    32   18   32 1
    33   18   33 1
    34   19   34 1
    35   19   35 1
    36   19   36 1
@<TRIPOS>MOLECULE
ZINC39323832
   37    39     0     0     0
SMALL
USER_CHARGES

@<TRIPOS>ATOM
      1 C1         -0.0187    1.5258    0.0104 C.3       1 <0>        -0.1534
      2 C2          0.0021   -0.0041    0.0020 C.3       1 <0>        -0.0286
      3 C3          0.7309   -0.5033    1.2229 C.2       1 <0>         0.2109
      4 N1          0.1815   -0.7748    2.3759 N.2       1 <0>        -0.4449
      5 C4          1.1333   -1.1921    3.2148 C.2       1 <0>        -0.0338
      6 C5          2.3122   -1.1754    2.5377 C.2       1 <0>         0.2042
      7 O1          2.0530   -0.7469    1.2993 O.3       1 <0>        -0.1867
      8 N2          3.5126   -1.5675    3.1280 N.pl3     1 <0>        -0.6141
      9 C6          3.4469   -2.2256    4.3367 C.2       1 <0>         0.5440
     10 C7          2.3104   -2.2788    5.0745 C.2       1 <0>        -0.3170
     11 C8          1.0249   -1.6185    4.6537 C.3       1 <0>         0.1332
     12 C9          0.7656   -0.3933    5.5343 C.3       1 <0>        -0.1336
     13 C10         0.5826   -0.8445    6.9851 C.3       1 <0>        -0.0118
     14 N3         -0.5575   -1.7647    7.0746 N.4       1 <0>        -0.4996
     15 C11        -0.2846   -2.9746    6.2896 C.3       1 <0>        -0.0477
     16 C12        -0.1345   -2.6056    4.8121 C.3       1 <0>        -0.1301
     17 C13         2.3343   -2.9975    6.3129 C.1       1 <0>         0.2780
     18 N4          2.3533   -3.5676    7.2953 N.1       1 <0>        -0.4483
     19 N5          4.5745   -2.8514    4.8118 N.pl3     1 <0>        -0.8428
     20 H1          1.0039    1.9031    0.0027 H         1 <0>         0.0607
     21 H2         -0.5459    1.8868   -0.8726 H         1 <0>         0.0797
     22 H3         -0.5289    1.8773    0.9072 H         1 <0>         0.0649
     23 H4         -1.0205   -0.3814    0.0098 H         1 <0>         0.1153
     24 H5          0.5123   -0.3556   -0.8948 H         1 <0>         0.0995
     25 H6          4.3647   -1.3832    2.7028 H         1 <0>         0.4314
     26 H7          1.6141    0.2879    5.4692 H         1 <0>         0.1121
     27 H8         -0.1368    0.1149    5.1945 H         1 <0>         0.0994
     28 H9          1.4859   -1.3517    7.3241 H         1 <0>         0.1257
     29 H10         0.3972    0.0254    7.6151 H         1 <0>         0.1377
     30 H11        -0.7088   -2.0181    8.0394 H         1 <0>         0.4306
     31 H12         0.6369   -3.4367    6.6437 H         1 <0>         0.1460
     32 H13        -1.1102   -3.6767    6.4062 H         1 <0>         0.1356
     33 H14        -1.0560   -2.1447    4.4565 H         1 <0>         0.1029
     34 H15         0.0712   -3.5048    4.2314 H         1 <0>         0.1125
     35 H16         5.3969   -2.8246    4.2982 H         1 <0>         0.4148
     36 H17         4.5479   -3.3198    5.6608 H         1 <0>         0.4257
     37 H18        -1.3837   -1.3109    6.7147 H         1 <0>         0.4273
@<TRIPOS>BOND
     1    1    2 1
     2    1   20 1
     3    1   21 1
     4    1   22 1
     5    2    3 1
     6    2   23 1
     7    2   24 1
     8    3    7 1
     9    3    4 2
    10    4    5 1
    11    5   11 1
    12    5    6 2
    13    6    7 1
    14    6    8 1
    15    8    9 1
    16    8   25 1
    17    9   10 2
    18    9   19 1
    19   10   11 1
    20   10   17 1
    21   11   16 1
    22   11   12 1
    23   12   13 1
    24   12   26 1
    25   12   27 1
    26   13   14 1
    27   13   28 1
    28   13   29 1
    29   14   15 1
    30   14   30 1
    31   14   37 1
    32   15   16 1
    33   15   31 1
    34   15   32 1
    35   16   33 1
    36   16   34 1
    37   17   18 3
    38   19   35 1
    39   19   36 1
@<TRIPOS>MOLECULE
ZINC43252444
   33    33     0     0     0
SMALL
USER_CHARGES

@<TRIPOS>ATOM
      1 C1         -0.6487    1.8645   -0.4403 C.3       1 <0>        -0.1776
      2 C2         -0.5905    0.3486   -0.2412 C.3       1 <0>         0.0262
      3 H1         -1.5626   -0.0860   -0.4743 H         1 <0>         0.1407
      4 C3          0.4702   -0.2473   -1.1689 C.3       1 <0>         0.1582
      5 H2          1.4576    0.0952   -0.8592 H         1 <0>         0.1342
      6 C4          0.4143   -1.7514   -1.0952 C.2       1 <0>        -0.2609
      7 C5          1.3035   -2.6122   -0.5431 C.2       1 <0>        -0.1030
      8 C6          1.0430   -3.9692   -0.5928 C.2       1 <0>        -0.1560
      9 C7         -0.0954   -4.3981   -1.1931 C.2       1 <0>        -0.0977
     10 S1         -0.8443   -2.8606   -1.7055 S.3       1 <0>         0.1149
     11 Cl1        -0.6766   -6.0205   -1.4024 Cl        1 <0>         0.0425
     12 N1          0.2126    0.1852   -2.5490 N.3       1 <0>        -0.4901
     13 C8          1.2446   -0.3243   -3.4617 C.3       1 <0>         0.0164
     14 C9         -1.1278   -0.2257   -2.9878 C.3       1 <0>         0.0068
     15 C10        -1.5230    0.5687   -4.2060 C.2       1 <0>         0.5185
     16 O1         -0.7629    1.3957   -4.6635 O.2       1 <0>        -0.5128
     17 N2         -2.7210    0.3601   -4.7870 N.am      1 <0>        -0.8530
     18 N3         -0.2431    0.0511    1.1547 N.4       1 <0>        -0.6329
     19 H3          0.2980    2.3081   -0.1319 H         1 <0>         0.0871
     20 H4         -0.8281    2.0862   -1.4924 H         1 <0>         0.1215
     21 H5         -1.4574    2.2792    0.1614 H         1 <0>         0.0840
     22 H6          2.2025   -2.2437   -0.0716 H         1 <0>         0.1482
     23 H7          1.7352   -4.6767   -0.1608 H         1 <0>         0.1524
     24 H8          1.1790   -1.4111   -3.5141 H         1 <0>         0.0387
     25 H9          1.0913    0.0972   -4.4552 H         1 <0>         0.0973
     26 H10         2.2295   -0.0372   -3.0933 H         1 <0>         0.0820
     27 H11        -1.1200   -1.2876   -3.2334 H         1 <0>         0.0845
     28 H12        -1.8442   -0.0431   -2.1869 H         1 <0>         0.1047
     29 H13        -3.3289   -0.3013   -4.4211 H         1 <0>         0.4023
     30 H14        -2.9754    0.8714   -5.5711 H         1 <0>         0.4118
     31 H15        -0.9426    0.4441    1.7665 H         1 <0>         0.4416
     32 H16        -0.2047   -0.9486    1.2860 H         1 <0>         0.4340
     33 H17         0.6567    0.4534    1.3705 H         1 <0>         0.4356
@<TRIPOS>BOND
     1    1    2 1
     2    1   19 1
     3    1   20 1
     4    1   21 1
     5    2    3 1
     6    2    4 1
     7    2   18 1
     8    4    5 1
     9    4    6 1
    10    4   12 1
    11    6   10 1
    12    6    7 2
    13    7    8 1
    14    7   22 1
    15    8    9 2
    16    8   23 1
    17    9   10 1
    18    9   11 1
    19   12   13 1
    20   12   14 1
    21   13   24 1
    22   13   25 1
    23   13   26 1
    24   14   15 1
    25   14   27 1
    26   14   28 1
    27   15   16 2
    28   15   17 am
    29   17   29 1
    30   17   30 1
    31   18   31 1
    32   18   32 1
    33   18   33 1
@<TRIPOS>MOLECULE
ZINC51694956
   36    37     0     0     0
SMALL
USER_CHARGES

@<TRIPOS>ATOM
      1 C1         -0.0169    1.3977    0.0097 C.2       1 <0>         0.0329
      2 C2          1.1638    2.0807    0.0021 C.2       1 <0>        -0.2333
      3 C3          2.3727    1.3642   -0.0133 C.2       1 <0>         0.5204
      4 O1          3.4365    1.9628   -0.0198 O.2       1 <0>        -0.5177
      5 N1          2.3580    0.0177   -0.0204 N.am      1 <0>        -0.6012
      6 H1          3.1959   -0.4709   -0.0307 H         1 <0>         0.4269
      7 C4          1.1838   -0.6637   -0.0128 C.2       1 <0>         0.2706
      8 C5          0.0021   -0.0041    0.0020 C.2       1 <0>        -0.7919
      9 S1         -1.5113   -0.9064    0.0110 S.o2      1 <0>         2.7087
     10 O2         -1.1692   -2.2712    0.2103 O.2       1 <0>        -0.9490
     11 O3         -2.3953   -0.2083    0.8773 O.2       1 <0>        -0.9428
     12 N2         -2.1555   -0.7973   -1.5106 N.pl3     1 <0>        -1.1148
     13 C6         -1.4569   -1.4030   -2.6470 C.3       1 <0>         0.1405
     14 C7         -0.5896   -0.3465   -3.3344 C.3       1 <0>        -0.1401
     15 C8         -1.4766    0.7967   -3.8315 C.3       1 <0>        -0.1431
     16 C9         -2.5012    0.2510   -4.8281 C.3       1 <0>         0.0238
     17 C10        -3.3686   -0.8055   -4.1406 C.3       1 <0>        -0.1458
     18 C11        -2.4816   -1.9488   -3.6435 C.3       1 <0>        -0.1202
     19 N3         -3.3528    1.3487   -5.3054 N.4       1 <0>        -0.6378
     20 H2         -0.9560    1.9309    0.0260 H         1 <0>         0.1453
     21 H3          1.1695    3.1606    0.0075 H         1 <0>         0.1590
     22 H4          1.1928   -1.7437   -0.0191 H         1 <0>         0.1897
     23 H5         -2.9954   -0.3323   -1.6495 H         1 <0>         0.4148
     24 H6         -0.8250   -2.2175   -2.2928 H         1 <0>         0.1115
     25 H7          0.1404    0.0423   -2.6245 H         1 <0>         0.0887
     26 H8         -0.0698   -0.7972   -4.1799 H         1 <0>         0.0923
     27 H9         -1.9963    1.2474   -2.9861 H         1 <0>         0.0907
     28 H10        -0.8587    1.5494   -4.3213 H         1 <0>         0.0923
     29 H11        -1.9815   -0.1997   -5.6736 H         1 <0>         0.1452
     30 H12        -3.8883   -0.3548   -3.2952 H         1 <0>         0.0882
     31 H13        -4.0986   -1.1943   -4.8506 H         1 <0>         0.0958
     32 H14        -1.9618   -2.3994   -4.4890 H         1 <0>         0.0934
     33 H15        -3.0995   -2.7014   -3.1538 H         1 <0>         0.0988
     34 H16        -2.7809    2.0454   -5.7587 H         1 <0>         0.4372
     35 H17        -4.0286    0.9887   -5.9626 H         1 <0>         0.4375
     36 H18        -3.8340    1.7658   -4.5227 H         1 <0>         0.4333
@<TRIPOS>BOND
     1    1    8 1
     2    1    2 2
     3    1   20 1
     4    2    3 1
     5    2   21 1
     6    3    4 2
     7    3    5 am
     8    5    6 1
     9    5    7 1
    10    7    8 2
    11    7   22 1
    12    8    9 1
    13    9   10 2
    14    9   11 2
    15    9   12 1
    16   12   13 1
    17   12   23 1
    18   13   18 1
    19   13   14 1
    20   13   24 1
    21   14   15 1
    22   14   25 1
    23   14   26 1
    24   15   16 1
    25   15   27 1
    26   15   28 1
    27   16   17 1
    28   16   19 1
    29   16   29 1
    30   17   18 1
    31   17   30 1
    32   17   31 1
    33   18   32 1
    34   18   33 1
    35   19   34 1
    36   19   35 1
    37   19   36 1
@<TRIPOS>MOLECULE
ZINC37692137
   44    45     0     0     0
SMALL
USER_CHARGES

@<TRIPOS>ATOM
      1 C1          0.0076    1.6186   -0.1678 C.3       1 <0>        -0.1168
      2 C2          1.3319    2.1575   -0.7126 C.3       1 <0>        -0.1195
      3 C3          1.6338    1.5003   -2.0608 C.3       1 <0>        -0.1545
      4 C4          1.7366   -0.0153   -1.8778 C.3       1 <0>         0.1167
      5 H1          1.9517   -0.4835   -2.8384 H         1 <0>         0.0670
      6 C5          0.4123   -0.5541   -1.3330 C.3       1 <0>         0.0767
      7 H2         -0.3892   -0.3265   -2.0358 H         1 <0>         0.1070
      8 C6          0.1103    0.1031    0.0152 C.3       1 <0>        -0.1533
      9 N1          0.5109   -2.0092   -1.1573 N.3       1 <0>        -0.4939
     10 C7          1.2932   -2.3430    0.0404 C.3       1 <0>         0.0134
     11 C8          1.5859   -3.8213    0.0533 C.2       1 <0>         0.5110
     12 O1          1.2712   -4.5101   -0.8940 O.2       1 <0>        -0.5289
     13 N2          2.1975   -4.3778    1.1176 N.am      1 <0>        -0.8579
     14 C9         -0.8219   -2.6246   -1.1040 C.3       1 <0>         0.0731
     15 C10        -1.8248   -1.7395   -1.8497 C.3       1 <0>        -0.1621
     16 C11        -3.2243   -2.3451   -1.7226 C.3       1 <0>        -0.0059
     17 N3         -3.5996   -2.4259   -0.3059 N.4       1 <0>        -0.5052
     18 C12        -2.6846   -3.3301    0.4010 C.3       1 <0>        -0.0025
     19 C13        -1.2643   -2.7624    0.3556 C.3       1 <0>        -0.1904
     20 O2          2.7873   -0.3137   -0.9565 O.3       1 <0>        -0.5635
     21 H3         -0.2075    2.0868    0.7927 H         1 <0>         0.0662
     22 H4         -0.7939    1.8463   -0.8706 H         1 <0>         0.0597
     23 H5          1.2587    3.2372   -0.8430 H         1 <0>         0.0659
     24 H6          2.1334    1.9299   -0.0098 H         1 <0>         0.0716
     25 H7          0.8323    1.7279   -2.7636 H         1 <0>         0.0723
     26 H8          2.5773    1.8842   -2.4490 H         1 <0>         0.0736
     27 H9          0.9118   -0.1245    0.7180 H         1 <0>         0.0832
     28 H10        -0.8331   -0.2808    0.4034 H         1 <0>         0.0528
     29 H11         2.2306   -1.7871    0.0287 H         1 <0>         0.1492
     30 H12         0.7244   -2.0775    0.9315 H         1 <0>         0.0666
     31 H13         2.4492   -3.8269    1.8753 H         1 <0>         0.4026
     32 H14         2.3859   -5.3293    1.1259 H         1 <0>         0.4061
     33 H15        -0.7874   -3.6098   -1.5690 H         1 <0>         0.1150
     34 H16        -1.8203   -0.7394   -1.4162 H         1 <0>         0.0955
     35 H17        -1.5473   -1.6820   -2.9022 H         1 <0>         0.1230
     36 H18        -3.9408   -1.7175   -2.2526 H         1 <0>         0.1368
     37 H19        -3.2278   -3.3450   -2.1566 H         1 <0>         0.1345
     38 H20        -3.5487   -1.5069    0.1075 H         1 <0>         0.4257
     39 H21        -3.0026   -3.4297    1.4388 H         1 <0>         0.1335
     40 H22        -2.6996   -4.3090   -0.0783 H         1 <0>         0.1339
     41 H23        -0.5862   -3.4361    0.8794 H         1 <0>         0.1107
     42 H24        -1.2481   -1.7836    0.8348 H         1 <0>         0.0944
     43 H25         3.6579   -0.0006   -1.2379 H         1 <0>         0.3829
     44 H26        -4.5429   -2.7755   -0.2283 H         1 <0>         0.4332
@<TRIPOS>BOND
     1    1    8 1
     2    1    2 1
     3    1   21 1
     4    1   22 1
     5    2    3 1
     6    2   23 1
     7    2   24 1
     8    3    4 1
     9    3   25 1
    10    3   26 1
    11    4    5 1
    12    4    6 1
    13    4   20 1
    14    6    7 1
    15    6    8 1
    16    6    9 1
    17    8   27 1
    18    8   28 1
    19    9   10 1
    20    9   14 1
    21   10   11 1
    22   10   29 1
    23   10   30 1
    24   11   12 2
    25   11   13 am
    26   13   31 1
    27   13   32 1
    28   14   19 1
    29   14   15 1
    30   14   33 1
    31   15   16 1
    32   15   34 1
    33   15   35 1
    34   16   17 1
    35   16   36 1
    36   16   37 1
    37   17   18 1
    38   17   38 1
    39   17   44 1
    40   18   19 1
    41   18   39 1
    42   18   40 1
    43   19   41 1
    44   19   42 1
    45   20   43 1
@<TRIPOS>MOLECULE
ZINC04674085
   34    35     0     0     0
SMALL
USER_CHARGES
2-methyl-4-nitro-5-(1-piperidyl)aniline
@<TRIPOS>ATOM
      1 C1          1.6218   -0.6692    5.8916 C.3       1 <0>        -0.1076
      2 C2          1.0060   -0.0792    4.6491 C.ar      1 <0>        -0.1669
      3 C3          1.0740    1.2826    4.4250 C.ar      1 <0>        -0.0049
      4 C4          0.5158    1.8267    3.2846 C.ar      1 <0>        -0.0829
      5 C5         -0.1266    1.0069    2.3642 C.ar      1 <0>         0.2038
      6 C6         -0.1971   -0.3609    2.5865 C.ar      1 <0>        -0.2321
      7 C7          0.3699   -0.9051    3.7305 C.ar      1 <0>         0.2750
      8 N1          0.3007   -2.2813    3.9583 N.pl3     1 <0>        -0.8572
      9 N2         -0.6954    1.5586    1.2141 N.pl3     1 <0>        -0.4940
     10 C8         -2.1530    1.3806    1.2106 C.3       1 <0>         0.0668
     11 C9         -2.7555    2.1210    0.0144 C.3       1 <0>        -0.1170
     12 C10        -2.1519    1.5671   -1.2792 C.3       1 <0>        -0.1217
     13 C11        -0.6292    1.7203   -1.2291 C.3       1 <0>        -0.1168
     14 C12        -0.0883    0.9916    0.0031 C.3       1 <0>         0.0633
     15 N3          0.5969    3.2851    3.0454 N.pl3     1 <0>         0.0385
     16 O1          1.2387    3.9916    3.8020 O.2       1 <0>        -0.2111
     17 O2          0.0217    3.7787    2.0919 O.3       1 <0>        -0.1121
     18 H1          2.6587   -0.9386    5.6904 H         1 <0>         0.0750
     19 H2          1.5867    0.0637    6.6977 H         1 <0>         0.0770
     20 H3          1.0656   -1.5593    6.1853 H         1 <0>         0.0655
     21 H4          1.5687    1.9224    5.1408 H         1 <0>         0.1543
     22 H5         -0.6924   -1.0006    1.8710 H         1 <0>         0.1395
     23 H6         -0.1438   -2.8574    3.3167 H         1 <0>         0.4053
     24 H7          0.6971   -2.6611    4.7580 H         1 <0>         0.4064
     25 H8         -2.5701    1.7824    2.1340 H         1 <0>         0.0754
     26 H9         -2.3891    0.3191    1.1371 H         1 <0>         0.0380
     27 H10        -3.8357    1.9760    0.0031 H         1 <0>         0.0700
     28 H11        -2.5314    3.1847    0.0943 H         1 <0>         0.0816
     29 H12        -2.4088    0.5125   -1.3788 H         1 <0>         0.0570
     30 H13        -2.5458    2.1210   -2.1314 H         1 <0>         0.0685
     31 H14        -0.1902    1.2890   -2.1288 H         1 <0>         0.0699
     32 H15        -0.3716    2.7777   -1.1695 H         1 <0>         0.0802
     33 H16        -0.3343   -0.0682   -0.0646 H         1 <0>         0.0386
     34 H17         0.9941    1.1109    0.0496 H         1 <0>         0.0745
@<TRIPOS>BOND
     1    1    2 1
     2    1   18 1
     3    1   19 1
     4    1   20 1
     5    2    7 ar
     6    2    3 ar
     7    3    4 ar
     8    3   21 1
     9    4    5 ar
    10    4   15 1
    11    5    6 ar
    12    5    9 1
    13    6    7 ar
    14    6   22 1
    15    7    8 1
    16    8   23 1
    17    8   24 1
    18    9   14 1
    19    9   10 1
    20   10   11 1
    21   10   25 1
    22   10   26 1
    23   11   12 1
    24   11   27 1
    25   11   28 1
    26   12   13 1
    27   12   29 1
    28   12   30 1
    29   13   14 1
    30   13   31 1
    31   13   32 1
    32   14   33 1
    33   14   34 1
    34   15   16 2
    35   15   17 1
@<TRIPOS>MOLECULE
ZINC20257393
   31    31     0     0     0
SMALL
USER_CHARGES
4-hydroxyimino-N-propyl-piperidine-1-carboxamide
@<TRIPOS>ATOM
      1 C1         -0.4891    8.5267   -3.7111 C.3       1 <0>        -0.1522
      2 C2         -0.9120    7.5585   -2.6045 C.3       1 <0>        -0.1353
      3 C3         -0.4439    6.1452   -2.9570 C.3       1 <0>         0.1368
      4 N1         -0.8488    5.2181   -1.8974 N.am      1 <0>        -0.7582
      5 C4         -0.5423    3.9092   -1.9938 C.2       1 <0>         0.7091
      6 O1          0.1479    3.5125   -2.9129 O.2       1 <0>        -0.5885
      7 N2         -1.0007    3.0400   -1.0714 N.am      1 <0>        -0.6321
      8 C5         -0.7685    1.5985   -1.2290 C.3       1 <0>         0.1310
      9 C6         -0.0152    1.0821    0.0033 C.3       1 <0>        -0.0800
     10 C7         -0.7293    1.5752    1.2427 C.2       1 <0>         0.1281
     11 N3         -1.0881    0.7591    2.1606 N.2       1 <0>        -0.3260
     12 O2         -1.7555    1.2393    3.3135 O.3       1 <0>        -0.4421
     13 C8         -1.0093    3.0566    1.3698 C.3       1 <0>        -0.1340
     14 C9         -1.7377    3.5236    0.1032 C.3       1 <0>         0.1225
     15 H1         -0.8257    9.5428   -3.4576 H         1 <0>         0.0610
     16 H2         -0.9442    8.2165   -4.6633 H         1 <0>         0.0588
     17 H3          0.6066    8.5168   -3.8079 H         1 <0>         0.0589
     18 H4         -0.4569    7.8687   -1.6523 H         1 <0>         0.0685
     19 H5         -2.0077    7.5684   -2.5076 H         1 <0>         0.0684
     20 H6         -0.8990    5.8351   -3.9092 H         1 <0>         0.0644
     21 H7          0.6518    6.1353   -3.0539 H         1 <0>         0.0658
     22 H8         -1.4030    5.5903   -1.0231 H         1 <0>         0.4121
     23 H9         -1.7340    1.0794   -1.3205 H         1 <0>         0.0729
     24 H10        -0.1693    1.4204   -2.1341 H         1 <0>         0.1100
     25 H11        -0.0012   -0.0177   -0.0098 H         1 <0>         0.0986
     26 H12         1.0169    1.4621   -0.0120 H         1 <0>         0.0972
     27 H13        -2.0640    0.5378    4.1026 H         1 <0>         0.4374
     28 H14        -1.6393    3.2362    2.2534 H         1 <0>         0.0969
     29 H15        -0.0599    3.6011    1.4797 H         1 <0>         0.0895
     30 H16        -1.7813    4.6225    0.0818 H         1 <0>         0.0851
     31 H17        -2.7592    3.1158    0.0886 H         1 <0>         0.0756
@<TRIPOS>BOND
     1    1    2 1
     2    1   15 1
     3    1   16 1
     4    1   17 1
     5    2    3 1
     6    2   18 1
     7    2   19 1
     8    3    4 1
     9    3   20 1
    10    3   21 1
    11    4    5 am
    12    4   22 1
    13    5    6 2
    14    5    7 am
    15    7   14 1
    16    7    8 1
    17    8    9 1
    18    8   23 1
    19    8   24 1
    20    9   10 1
    21    9   25 1
    22    9   26 1
    23   10   11 2
    24   10   13 1
    25   11   12 1
    26   12   27 1
    27   13   14 1
    28   13   28 1
    29   13   29 1
    30   14   30 1
    31   14   31 1
@<TRIPOS>MOLECULE
ZINC39334943
   27    28     0     0     0
SMALL
USER_CHARGES

@<TRIPOS>ATOM
      1 C1         -0.0187    1.5258    0.0104 C.3       1 <0>        -0.1569
      2 C2          0.0021   -0.0041    0.0020 C.3       1 <0>        -0.1106
      3 C3          0.7182   -0.4975   -1.2568 C.3       1 <0>         0.0635
      4 H1          1.7126   -0.0559   -1.3217 H         1 <0>         0.1049
      5 C4         -0.0923   -0.1502   -2.4923 C.2       1 <0>        -0.2910
      6 C5         -0.7176   -1.0989   -3.2204 C.2       1 <0>         0.4485
      7 O1         -0.7019   -2.4256   -2.9950 O.3       1 <0>        -0.2793
      8 C6         -0.3764   -2.8635   -1.6736 C.3       1 <0>         0.1643
      9 H2         -1.2222   -2.7653   -0.9930 H         1 <0>         0.1641
     10 C7          0.8150   -1.9982   -1.2459 C.2       1 <0>        -0.1535
     11 C8          1.7651   -2.8479   -0.9423 C.2       1 <0>        -0.0088
     12 N1          1.3687   -4.1167   -1.2183 N.2       1 <0>        -0.1176
     13 N2          0.1905   -4.2147   -1.6523 N.2       1 <0>        -0.1411
     14 C9          3.1066   -2.4706   -0.3686 C.3       1 <0>        -0.0896
     15 N3         -1.4442   -0.6665   -4.3010 N.pl3     1 <0>        -0.8353
     16 C10        -0.1965    1.2199   -2.8956 C.1       1 <0>         0.2765
     17 N4         -0.2792    2.3068   -3.2155 N.1       1 <0>        -0.4446
     18 H3          1.0039    1.9031    0.0027 H         1 <0>         0.0572
     19 H4         -0.5459    1.8868   -0.8726 H         1 <0>         0.0589
     20 H5         -0.5289    1.8773    0.9072 H         1 <0>         0.0609
     21 H6          0.5293   -0.3651    0.8851 H         1 <0>         0.0730
     22 H7         -1.0205   -0.3814    0.0098 H         1 <0>         0.0669
     23 H8          3.0482   -2.4670    0.7199 H         1 <0>         0.0873
     24 H9          3.8557   -3.1942   -0.6899 H         1 <0>         0.0848
     25 H10         3.3860   -1.4776   -0.7207 H         1 <0>         0.0829
     26 H11        -1.4889    0.2801   -4.5081 H         1 <0>         0.4236
     27 H12        -1.9132   -1.3075   -4.8580 H         1 <0>         0.4110
@<TRIPOS>BOND
     1    1    2 1
     2    1   18 1
     3    1   19 1
     4    1   20 1
     5    2    3 1
     6    2   21 1
     7    2   22 1
     8    3    4 1
     9    3   10 1
    10    3    5 1
    11    5    6 2
    12    5   16 1
    13    6    7 1
    14    6   15 1
    15    7    8 1
    16    8    9 1
    17    8   13 1
    18    8   10 1
    19   10   11 2
    20   11   12 1
    21   11   14 1
    22   12   13 2
    23   14   23 1
    24   14   24 1
    25   14   25 1
    26   15   26 1
    27   15   27 1
    28   16   17 3
@<TRIPOS>MOLECULE
ZINC44857616
   34    35     0     0     0
SMALL
USER_CHARGES

@<TRIPOS>ATOM
      1 C1         -0.0187    1.5258    0.0104 C.3       1 <0>        -0.1858
      2 C2          0.0021   -0.0041    0.0020 C.3       1 <0>         0.1335
      3 C3          0.7421   -0.5109    1.2415 C.3       1 <0>        -0.1865
      4 C4         -1.4333   -0.5336    0.0129 C.3       1 <0>        -0.1401
      5 O1          0.6709   -0.4649   -1.1737 O.3       1 <0>        -0.3505
      6 C5          1.9522   -0.0848   -1.3367 C.2       1 <0>         0.6820
      7 O2          2.4879    0.6189   -0.5034 O.2       1 <0>        -0.5628
      8 N1          2.6407   -0.4850   -2.4240 N.am      1 <0>        -0.5929
      9 C6          2.1624   -1.3313   -3.5419 C.3       1 <0>         0.1252
     10 C7          2.7845   -0.6972   -4.8046 C.3       1 <0>        -0.1664
     11 H1          2.8104   -1.3000   -5.7123 H         1 <0>         0.1317
     12 C8          2.8008    0.8290   -4.9118 C.3       1 <0>        -0.1289
     13 C9          4.0274    0.0632   -4.2973 C.3       1 <0>        -0.1829
     14 H2          4.9753    0.0384   -4.8350 H         1 <0>         0.1380
     15 C10         4.0456   -0.1728   -2.7758 C.3       1 <0>         0.1640
     16 H3          4.3765    0.7266   -2.2566 H         1 <0>         0.1195
     17 C11         4.9426   -1.3359   -2.4385 C.2       1 <0>         0.5173
     18 O3          4.4680   -2.4397   -2.2731 O.2       1 <0>        -0.5276
     19 N2          6.2721   -1.1494   -2.3206 N.am      1 <0>        -0.8483
     20 H4          1.0039    1.9031    0.0027 H         1 <0>         0.0867
     21 H5         -0.5459    1.8868   -0.8726 H         1 <0>         0.0598
     22 H6         -0.5289    1.8773    0.9072 H         1 <0>         0.0716
     23 H7          0.2319   -0.1594    2.1383 H         1 <0>         0.0717
     24 H8          0.7568   -1.6008    1.2356 H         1 <0>         0.0603
     25 H9          1.7647   -0.1336    1.2338 H         1 <0>         0.0861
     26 H10        -1.9605   -0.1726   -0.8702 H         1 <0>         0.0671
     27 H11        -1.4185   -1.6235    0.0069 H         1 <0>         0.0674
     28 H12        -1.9435   -0.1821    0.9097 H         1 <0>         0.0820
     29 H13         2.5126   -2.3563   -3.4194 H         1 <0>         0.0989
     30 H14         1.0743   -1.3049   -3.5999 H         1 <0>         0.0906
     31 H15         2.9346    1.2615   -5.9034 H         1 <0>         0.1120
     32 H16         2.1474    1.3867   -4.2409 H         1 <0>         0.0969
     33 H17         6.6517   -0.2666   -2.4528 H         1 <0>         0.4041
     34 H18         6.8495   -1.8980   -2.1034 H         1 <0>         0.4061
@<TRIPOS>BOND
     1    1    2 1
     2    1   20 1
     3    1   21 1
     4    1   22 1
     5    2    3 1
     6    2    4 1
     7    2    5 1
     8    3   23 1
     9    3   24 1
    10    3   25 1
    11    4   26 1
    12    4   27 1
    13    4   28 1
    14    5    6 1
    15    6    7 2
    16    6    8 am
    17    8   15 1
    18    8    9 1
    19    9   10 1
    20    9   29 1
    21    9   30 1
    22   10   11 1
    23   10   13 1
    24   10   12 1
    25   12   13 1
    26   12   31 1
    27   12   32 1
    28   13   14 1
    29   13   15 1
    30   15   16 1
    31   15   17 1
    32   17   18 2
    33   17   19 am
    34   19   33 1
    35   19   34 1
@<TRIPOS>MOLECULE
ZINC51037569
   28    30     0     0     0
SMALL
USER_CHARGES

@<TRIPOS>ATOM
      1 C1         -4.4931   -2.1788    3.9101 C.3       1 <0>        -0.0560
      2 C2         -3.4775   -2.8679    3.0356 C.2       1 <0>         0.1548
      3 N1         -3.7146   -3.8344    2.1976 N.2       1 <0>        -0.2833
      4 N2         -2.6188   -4.1821    1.6200 N.2       1 <0>        -0.2871
      5 C3         -1.6356   -3.4424    2.0739 C.2       1 <0>         0.1267
      6 O1         -2.1602   -2.5909    2.9756 O.3       1 <0>        -0.2106
      7 S1          0.0557   -3.5401    1.5895 S.3       1 <0>         0.1891
      8 C4          0.1093   -4.9292    0.5068 C.ar      1 <0>        -0.2112
      9 C5          0.2028   -4.7408   -0.8553 C.ar      1 <0>         0.0454
     10 C6          0.2464   -5.8247   -1.7255 C.ar      1 <0>        -0.2374
     11 C7          0.1970   -7.1162   -1.2451 C.ar      1 <0>         0.2895
     12 C8          0.1017   -7.3406    0.1436 C.ar      1 <0>        -0.1611
     13 C9          0.0626   -6.2380    1.0319 C.ar      1 <0>         0.2212
     14 N3         -0.0234   -6.4476    2.3488 N.ar      1 <0>        -0.4780
     15 C10        -0.0677   -7.6606    2.8447 C.ar      1 <0>         0.1582
     16 C11        -0.0271   -8.7875    2.0275 C.ar      1 <0>        -0.1922
     17 C12         0.0492   -8.6429    0.6706 C.ar      1 <0>        -0.0377
     18 N4          0.2407   -8.1959   -2.1290 N.pl3     1 <0>        -0.8553
     19 H1         -4.9159   -1.3284    3.3751 H         1 <0>         0.0980
     20 H2         -5.2883   -2.8795    4.1649 H         1 <0>         0.1056
     21 H3         -4.0099   -1.8301    4.8228 H         1 <0>         0.0927
     22 H4          0.2424   -3.7372   -1.2525 H         1 <0>         0.1432
     23 H5          0.3194   -5.6530   -2.7892 H         1 <0>         0.1369
     24 H6         -0.1371   -7.7892    3.9148 H         1 <0>         0.1618
     25 H7         -0.0649   -9.7742    2.4648 H         1 <0>         0.1406
     26 H8          0.0806   -9.5057    0.0217 H         1 <0>         0.1344
     27 H9          0.3059   -8.0385   -3.0840 H         1 <0>         0.4090
     28 H10         0.2058   -9.1034   -1.7883 H         1 <0>         0.4026
@<TRIPOS>BOND
     1    1    2 1
     2    1   19 1
     3    1   20 1
     4    1   21 1
     5    2    6 1
     6    2    3 2
     7    3    4 1
     8    4    5 2
     9    5    6 1
    10    5    7 1
    11    7    8 1
    12    8   13 ar
    13    8    9 ar
    14    9   10 ar
    15    9   22 1
    16   10   11 ar
    17   10   23 1
    18   11   12 ar
    19   11   18 1
    20   12   17 ar
    21   12   13 ar
    22   13   14 ar
    23   14   15 ar
    24   15   16 ar
    25   15   24 1
    26   16   17 ar
    27   16   25 1
    28   17   26 1
    29   18   27 1
    30   18   28 1
@<TRIPOS>MOLECULE
ZINC53619078
   33    35     0     0     0
SMALL
USER_CHARGES

@<TRIPOS>ATOM
      1 C1         -0.0187    1.5258    0.0104 C.3       1 <0>        -0.1473
      2 C2          0.0021   -0.0041    0.0020 C.3       1 <0>        -0.0793
      3 C3         -1.4117   -0.5257    0.0127 C.ar      1 <0>        -0.1524
      4 C4         -1.9880   -0.9531   -1.1499 C.ar      1 <0>        -0.0078
      5 C5         -3.2988   -1.4375   -1.1379 C.ar      1 <0>        -0.2610
      6 C6         -4.0250   -1.4909    0.0655 C.ar      1 <0>         0.1956
      7 C7         -3.4270   -1.0501    1.2346 C.ar      1 <0>        -0.1904
      8 C8         -2.1234   -0.5754    1.2084 C.ar      1 <0>         0.1827
      9 O1         -1.5393   -0.1504    2.3568 O.3       1 <0>        -0.4896
     10 O2         -5.2900   -1.9711    0.0913 O.3       1 <0>        -0.2992
     11 C9         -6.0493   -1.9682   -1.1175 C.3       1 <0>         0.0770
     12 C10        -5.2436   -2.6614   -2.2259 C.3       1 <0>        -0.0820
     13 H1         -5.8014   -2.6353   -3.1620 H         1 <0>         0.1299
     14 C11        -3.9408   -1.8969   -2.3789 C.2       1 <0>         0.4113
     15 O3         -3.4547   -1.6760   -3.4684 O.2       1 <0>        -0.4329
     16 C12        -4.9599   -4.0896   -1.8376 C.2       1 <0>         0.0092
     17 H2         -3.4602   -6.4674   -0.4851 H         1 <0>         0.4240
     18 C13        -3.9333   -4.5136   -1.0760 C.2       1 <0>        -0.0336
     19 N1         -4.0524   -5.8733   -0.9722 N.pl3     1 <0>        -0.5660
     20 C14        -5.1483   -6.2331   -1.6745 C.2       1 <0>         0.1935
     21 N2         -5.6887   -5.1606   -2.1851 N.2       1 <0>        -0.4823
     22 H3          1.0039    1.9031    0.0027 H         1 <0>         0.0617
     23 H4         -0.5459    1.8868   -0.8726 H         1 <0>         0.0562
     24 H5         -0.5289    1.8773    0.9072 H         1 <0>         0.0515
     25 H6          0.5123   -0.3556   -0.8948 H         1 <0>         0.0736
     26 H7          0.5293   -0.3651    0.8851 H         1 <0>         0.0799
     27 H8         -1.4325   -0.9165   -2.0754 H         1 <0>         0.1407
     28 H9         -3.9731   -1.0801    2.1659 H         1 <0>         0.1459
     29 H10        -1.6743    0.7889    2.5425 H         1 <0>         0.3985
     30 H11        -6.9859   -2.5030   -0.9599 H         1 <0>         0.1270
     31 H12        -6.2619   -0.9402   -1.4110 H         1 <0>         0.0799
     32 H13        -3.1638   -3.8990   -0.6326 H         1 <0>         0.1728
     33 H14        -5.5185   -7.2410   -1.7908 H         1 <0>         0.2132
@<TRIPOS>BOND
     1    1    2 1
     2    1   22 1
     3    1   23 1
     4    1   24 1
     5    2    3 1
     6    2   25 1
     7    2   26 1
     8    3    8 ar
     9    3    4 ar
    10    4    5 ar
    11    4   27 1
    12    5   14 1
    13    5    6 ar
    14    6    7 ar
    15    6   10 1
    16    7    8 ar
    17    7   28 1
    18    8    9 1
    19    9   29 1
    20   10   11 1
    21   11   12 1
    22   11   30 1
    23   11   31 1
    24   12   13 1
    25   12   14 1
    26   12   16 1
    27   14   15 2
    28   16   18 2
    29   16   21 1
    30   17   19 1
    31   18   19 1
    32   18   32 1
    33   19   20 1
    34   20   33 1
    35   20   21 2
@<TRIPOS>MOLECULE
ZINC30026003
   46    48     0     0     0
SMALL
USER_CHARGES
ethyl (4S)-6-[(N-cyclopropylcarbamimidoyl)sulfanylmethyl]-4-(2-furyl)-2-oxo-3,4-dihydro-1H-pyrimidine-5-carboxylate
@<TRIPOS>ATOM
      1 C1         -2.8136   -2.2783    1.8286 C.3       1 <0>        -0.1589
      2 C2         -1.4936   -2.5004    2.5697 C.3       1 <0>         0.0608
      3 O1         -0.4038   -2.3464    1.6583 O.3       1 <0>        -0.3263
      4 C3          0.8394   -2.5113    2.1564 C.2       1 <0>         0.5422
      5 O2          0.9927   -2.7787    3.3335 O.2       1 <0>        -0.5285
      6 C4          1.9645   -2.3733    1.3102 C.2       1 <0>        -0.2454
      7 C5          3.2194   -2.3909    1.8087 C.2       1 <0>         0.2656
      8 N1          4.3047   -2.2566    0.9907 N.am      1 <0>        -0.6589
      9 C6          4.2195   -2.1017   -0.3366 C.2       1 <0>         0.7076
     10 O3          5.2433   -1.9904   -0.9824 O.2       1 <0>        -0.5451
     11 N2          3.0358   -2.0654   -0.9798 N.am      1 <0>        -0.7269
     12 C7          1.8025   -2.2013   -0.1866 C.3       1 <0>         0.2827
     13 H1          1.3661   -3.1417   -0.5544 H         1 <0>         0.1205
     14 C8          0.9595   -0.9750   -0.4247 C.2       1 <0>        -0.0544
     15 C9         -0.3772   -0.9561   -0.5734 C.2       1 <0>        -0.1512
     16 C10        -0.7479    0.3933   -0.7749 C.2       1 <0>        -0.2165
     17 C11         0.3845    1.1183   -0.7374 C.2       1 <0>        -0.0268
     18 O4          1.4156    0.2842   -0.5250 O.3       1 <0>        -0.1694
     19 C12         3.4256   -2.5603    3.2919 C.3       1 <0>        -0.1620
     20 S1          3.6213   -4.3180    3.6769 S.3       1 <0>         0.1098
     21 C13         3.8398   -4.2263    5.4229 C.cat     1 <0>         0.4744
     22 N3          3.8213   -3.0681    6.0225 N.pl3     1 <0>        -0.7872
     23 N4          4.0299   -5.3762    6.1537 N.pl3     1 <0>        -0.6615
     24 C14         4.2115   -5.2999    7.6054 C.3       1 <0>        -0.0410
     25 C15         5.3129   -6.1619    8.2258 C.3       1 <0>        -0.1083
     26 C16         3.8424   -6.5351    8.4294 C.3       1 <0>        -0.1039
     27 H2         -3.6524   -2.3969    2.5302 H         1 <0>         0.0843
     28 H3         -2.9071   -3.0153    1.0174 H         1 <0>         0.0703
     29 H4         -2.8302   -1.2631    1.4054 H         1 <0>         0.0715
     30 H5         -1.4001   -1.7634    3.3809 H         1 <0>         0.0697
     31 H6         -1.4770   -3.5156    2.9929 H         1 <0>         0.0714
     32 H7          5.3191   -2.2725    1.4158 H         1 <0>         0.4614
     33 H8          2.9768   -1.9379   -2.0708 H         1 <0>         0.4710
     34 H9         -1.0402   -1.8081   -0.5438 H         1 <0>         0.1539
     35 H10        -1.7479    0.7693   -0.9334 H         1 <0>         0.1514
     36 H11         0.4531    2.1893   -0.8580 H         1 <0>         0.2046
     37 H12         4.3291   -2.0144    3.6012 H         1 <0>         0.1282
     38 H13         2.5537   -2.1616    3.8312 H         1 <0>         0.1827
     39 H14         3.9577   -3.0108    7.1125 H         1 <0>         0.4574
     40 H15         4.0456   -6.3530    5.6480 H         1 <0>         0.4555
     41 H16         3.9413   -4.2336    7.6090 H         1 <0>         0.1201
     42 H17         5.9613   -6.5570    7.4299 H         1 <0>         0.1180
     43 H18         5.9117   -5.5503    8.9168 H         1 <0>         0.1251
     44 H19         3.2261   -6.2319    9.2886 H         1 <0>         0.1272
     45 H20         3.2757   -7.2386    7.8018 H         1 <0>         0.1189
     46 H21         3.6693   -2.1486    5.4382 H         1 <0>         0.4655
@<TRIPOS>BOND
     1    1    2 1
     2    1   27 1
     3    1   28 1
     4    1   29 1
     5    2    3 1
     6    2   30 1
     7    2   31 1
     8    3    4 1
     9    4    5 2
    10    4    6 1
    11    6   12 1
    12    6    7 2
    13    7    8 1
    14    7   19 1
    15    8    9 am
    16    8   32 1
    17    9   10 2
    18    9   11 am
    19   11   12 1
    20   11   33 1
    21   12   13 1
    22   12   14 1
    23   14   18 1
    24   14   15 2
    25   15   16 1
    26   15   34 1
    27   16   17 2
    28   16   35 1
    29   17   18 1
    30   17   36 1
    31   19   20 1
    32   19   37 1
    33   19   38 1
    34   20   21 1
    35   21   22 2
    36   21   23 1
    37   22   39 1
    38   22   46 1
    39   23   24 1
    40   23   40 1
    41   24   26 1
    42   24   25 1
    43   24   41 1
    44   25   26 1
    45   25   42 1
    46   25   43 1
    47   26   44 1
    48   26   45 1
@<TRIPOS>MOLECULE
ZINC41333182
   52    55     0     0     0
SMALL
USER_CHARGES

@<TRIPOS>ATOM
      1 C1         -0.0184    1.5028    0.0103 C.3       1 <0>        -0.0902
      2 C2          0.0021   -0.0041    0.0020 C.2       1 <0>         0.0691
      3 C3         -1.0762   -0.8073    0.0026 C.2       1 <0>        -0.2880
      4 C4         -0.6253   -2.1468   -0.0067 C.2       1 <0>         0.3348
      5 N1          0.6834   -2.1300   -0.0127 N.2       1 <0>        -0.3428
      6 O1          1.0998   -0.7764   -0.0131 O.3       1 <0>        -0.0633
      7 N2         -1.4309   -3.2832   -0.0088 N.pl3     1 <0>        -0.5956
      8 C5         -2.8077   -3.1548   -0.0013 C.ar      1 <0>         0.5572
      9 C6         -3.6375   -4.2934    0.0027 C.ar      1 <0>        -0.3438
     10 C7         -3.4083   -5.6868    0.0005 C.2       1 <0>         0.1202
     11 N3         -4.5601   -6.2958    0.0066 N.2       1 <0>        -0.2362
     12 N4         -5.5939   -5.3508    0.0131 N.pl3     1 <0>        -0.3231
     13 C8         -5.0333   -4.1050    0.0108 C.ar      1 <0>         0.4156
     14 N5         -5.5155   -2.8639    0.0144 N.ar      1 <0>        -0.5952
     15 C9         -4.6989   -1.8240    0.0104 C.ar      1 <0>         0.6405
     16 N6         -3.3774   -1.9560    0.0079 N.ar      1 <0>        -0.6243
     17 N7         -5.2413   -0.5509    0.0144 N.pl3     1 <0>        -0.6941
     18 C10        -4.3612    0.6203    0.0102 C.3       1 <0>         0.1090
     19 C11        -5.2080    1.8946    0.0159 C.3       1 <0>        -0.0242
     20 N8         -4.3255    3.0689    0.0116 N.4       1 <0>        -0.5033
     21 C12        -5.1385    4.2924    0.0171 C.3       1 <0>        -0.0028
     22 C13        -4.2193    5.5156    0.0127 C.3       1 <0>         0.0437
     23 O2         -3.4850    5.5551   -1.2126 O.3       1 <0>        -0.5821
     24 C14        -6.9654   -5.6341    0.0203 C.ar      1 <0>         0.1450
     25 C15        -7.8430   -4.8079    0.7101 C.ar      1 <0>        -0.1111
     26 C16        -9.1949   -5.0901    0.7153 C.ar      1 <0>        -0.1014
     27 C17        -9.6750   -6.1939    0.0346 C.ar      1 <0>        -0.1138
     28 C18        -8.8037   -7.0186   -0.6532 C.ar      1 <0>        -0.1006
     29 C19        -7.4513   -6.7386   -0.6670 C.ar      1 <0>        -0.1070
     30 H1          1.0042    1.8801    0.0026 H         1 <0>         0.0918
     31 H2         -0.5455    1.8639   -0.8728 H         1 <0>         0.0918
     32 H3         -0.5286    1.8543    0.9071 H         1 <0>         0.0905
     33 H4         -2.1070   -0.4851    0.0094 H         1 <0>         0.1876
     34 H5         -1.0261   -4.1647   -0.0155 H         1 <0>         0.4388
     35 H6         -2.4409   -6.1669   -0.0057 H         1 <0>         0.2047
     36 H7         -6.2042   -0.4340    0.0200 H         1 <0>         0.4248
     37 H8         -3.7271    0.6014    0.8965 H         1 <0>         0.0918
     38 H9         -3.7372    0.6026   -0.8834 H         1 <0>         0.0921
     39 H10        -5.8421    1.9134   -0.8705 H         1 <0>         0.1427
     40 H11        -5.8319    1.9122    0.9094 H         1 <0>         0.1425
     41 H12        -3.7385    3.0515    0.8321 H         1 <0>         0.4293
     42 H13        -5.7726    4.3113   -0.8693 H         1 <0>         0.1413
     43 H14        -5.7624    4.3101    0.9107 H         1 <0>         0.1471
     44 H15        -4.8190    6.4210    0.1063 H         1 <0>         0.0980
     45 H16        -3.5250    5.4513    0.8505 H         1 <0>         0.0744
     46 H17        -2.8805    6.3064   -1.2847 H         1 <0>         0.4117
     47 H18        -7.4686   -3.9459    1.2422 H         1 <0>         0.1322
     48 H19        -9.8779   -4.4481    1.2519 H         1 <0>         0.1335
     49 H20       -10.7326   -6.4126    0.0405 H         1 <0>         0.1324
     50 H21        -9.1817   -7.8799   -1.1838 H         1 <0>         0.1360
     51 H22        -6.7720   -7.3804   -1.2083 H         1 <0>         0.1346
     52 H23        -3.7479    3.0526   -0.8156 H         1 <0>         0.4380
@<TRIPOS>BOND
     1    1    2 1
     2    1   30 1
     3    1   31 1
     4    1   32 1
     5    2    6 1
     6    2    3 2
     7    3    4 1
     8    3   33 1
     9    4    5 2
    10    4    7 1
    11    5    6 1
    12    7    8 1
    13    7   34 1
    14    8   16 ar
    15    8    9 ar
    16    9   13 ar
    17    9   10 1
    18   10   11 2
    19   10   35 1
    20   11   12 1
    21   12   13 1
    22   12   24 1
    23   13   14 ar
    24   14   15 ar
    25   15   16 ar
    26   15   17 1
    27   17   18 1
    28   17   36 1
    29   18   19 1
    30   18   37 1
    31   18   38 1
    32   19   20 1
    33   19   39 1
    34   19   40 1
    35   20   21 1
    36   20   41 1
    37   20   52 1
    38   21   22 1
    39   21   42 1
    40   21   43 1
    41   22   23 1
    42   22   44 1
    43   22   45 1
    44   23   46 1
    45   24   29 ar
    46   24   25 ar
    47   25   26 ar
    48   25   47 1
    49   26   27 ar
    50   26   48 1
    51   27   28 ar
    52   27   49 1
    53   28   29 ar
    54   28   50 1
    55   29   51 1
@<TRIPOS>MOLECULE
ZINC14927409
   52    52     0     0     0
SMALL
USER_CHARGES

@<TRIPOS>ATOM
      1 C1          0.5917    0.7382   -0.2552 C.3       1 <0>        -0.1121
      2 C2         -0.3283   -0.4274    0.0018 C.ar      1 <0>        -0.1009
      3 C3         -1.1910   -0.8568   -0.9899 C.ar      1 <0>        -0.0889
      4 C4         -2.0376   -1.9252   -0.7598 C.ar      1 <0>        -0.1824
      5 C5         -2.0233   -2.5691    0.4669 C.ar      1 <0>         0.0996
      6 C6         -1.1542   -2.1374    1.4662 C.ar      1 <0>         0.1098
      7 C7         -0.3036   -1.0681    1.2260 C.ar      1 <0>        -0.0939
      8 N1         -1.1353   -2.7847    2.7088 N.am      1 <0>        -0.6472
      9 C8         -0.6980   -2.1304    3.8029 C.2       1 <0>         0.5076
     10 O1         -0.4032   -0.9561    3.7299 O.2       1 <0>        -0.5200
     11 C9         -0.5753   -2.8578    5.1170 C.3       1 <0>         0.0985
     12 N2         -0.0830   -1.9344    6.1422 N.am      1 <0>        -0.6929
     13 C10         0.1056   -2.3673    7.4046 C.2       1 <0>         0.5071
     14 O2         -0.1323   -3.5213    7.6918 O.2       1 <0>        -0.5179
     15 C11         0.6120   -1.4173    8.4592 C.3       1 <0>        -0.0422
     16 N3          0.9862   -2.1744    9.6612 N.4       1 <0>        -0.3581
     17 C12         1.0103   -1.2723   10.8203 C.3       1 <0>        -0.0400
     18 C13         1.2030   -2.0775   12.0795 C.2       1 <0>         0.5094
     19 O3          1.3563   -3.2787   12.0137 O.2       1 <0>        -0.5232
     20 N4          1.2049   -1.4626   13.2789 N.am      1 <0>        -0.8246
     21 C14         2.3178   -2.7654    9.4728 C.3       1 <0>         0.0100
     22 C15         2.2911   -3.7096    8.2693 C.3       1 <0>        -0.1769
     23 C16         3.3391   -1.6532    9.2260 C.3       1 <0>        -0.1859
     24 O4         -2.8560   -3.6196    0.6950 O.3       1 <0>        -0.3232
     25 C17        -3.7201   -4.0067   -0.3752 C.3       1 <0>         0.0280
     26 H1          1.5321    0.3744   -0.6691 H         1 <0>         0.0714
     27 H2          0.1231    1.4216   -0.9635 H         1 <0>         0.0692
     28 H3          0.7851    1.2617    0.6811 H         1 <0>         0.0669
     29 H4         -1.2038   -0.3559   -1.9466 H         1 <0>         0.1304
     30 H5         -2.7105   -2.2579   -1.5363 H         1 <0>         0.1364
     31 H6          0.3746   -0.7336    1.9971 H         1 <0>         0.1520
     32 H7         -1.4370   -3.7037    2.7815 H         1 <0>         0.4201
     33 H8         -1.5518   -3.2416    5.4124 H         1 <0>         0.1153
     34 H9          0.1237   -3.6872    5.0093 H         1 <0>         0.1156
     35 H10         0.1072   -1.0113    5.9125 H         1 <0>         0.4218
     36 H11         1.4837   -0.8842    8.0796 H         1 <0>         0.1656
     37 H12        -0.1710   -0.7016    8.7097 H         1 <0>         0.1661
     38 H13         1.8319   -0.5642   10.7126 H         1 <0>         0.1663
     39 H14         0.0672   -0.7287   10.8773 H         1 <0>         0.1640
     40 H15         1.0823   -0.5018   13.3315 H         1 <0>         0.4138
     41 H16         1.3289   -1.9808   14.0894 H         1 <0>         0.4249
     42 H17         2.5973   -3.3235   10.3664 H         1 <0>         0.1580
     43 H18         2.0692   -3.1410    7.3662 H         1 <0>         0.0673
     44 H19         3.2626   -4.1928    8.1649 H         1 <0>         0.0995
     45 H20         1.5225   -4.4678    8.4193 H         1 <0>         0.1022
     46 H21         3.4108   -1.0226   10.1121 H         1 <0>         0.0800
     47 H22         4.3130   -2.0947    9.0144 H         1 <0>         0.1112
     48 H23         3.0211   -1.0501    8.3756 H         1 <0>         0.0802
     49 H24        -4.3683   -3.1711   -0.6393 H         1 <0>         0.0587
     50 H25        -3.1217   -4.2900   -1.2410 H         1 <0>         0.0592
     51 H26        -4.3295   -4.8543   -0.0617 H         1 <0>         0.1041
     52 H27         0.3120   -2.9081    9.8200 H         1 <0>         0.4398
@<TRIPOS>BOND
     1    1    2 1
     2    1   26 1
     3    1   27 1
     4    1   28 1
     5    2    7 ar
     6    2    3 ar
     7    3    4 ar
     8    3   29 1
     9    4    5 ar
    10    4   30 1
    11    5    6 ar
    12    5   24 1
    13    6    7 ar
    14    6    8 1
    15    7   31 1
    16    8    9 am
    17    8   32 1
    18    9   10 2
    19    9   11 1
    20   11   12 1
    21   11   33 1
    22   11   34 1
    23   12   13 am
    24   12   35 1
    25   13   14 2
    26   13   15 1
    27   15   16 1
    28   15   36 1
    29   15   37 1
    30   16   17 1
    31   16   21 1
    32   16   52 1
    33   17   18 1
    34   17   38 1
    35   17   39 1
    36   18   19 2
    37   18   20 am
    38   20   40 1
    39   20   41 1
    40   21   22 1
    41   21   23 1
    42   21   42 1
    43   22   43 1
    44   22   44 1
    45   22   45 1
    46   23   46 1
    47   23   47 1
    48   23   48 1
    49   24   25 1
    50   25   49 1
    51   25   50 1
    52   25   51 1
@<TRIPOS>MOLECULE
ZINC63818676
   53    56     0     0     0
SMALL
USER_CHARGES

@<TRIPOS>ATOM
      1 C1         -0.0153    1.3806    0.0293 C.ar      1 <0>        -0.1299
      2 C2          0.1395    0.2185    0.7628 C.ar      1 <0>        -0.0995
      3 C3          1.3439   -0.4572    0.7427 C.ar      1 <0>        -0.1193
      4 C4          2.3999    0.0313   -0.0154 C.ar      1 <0>         0.1377
      5 C5          2.2411    1.1983   -0.7512 C.ar      1 <0>        -0.1444
      6 C6          1.0343    1.8696   -0.7267 C.ar      1 <0>        -0.1000
      7 N1          3.6215   -0.6506   -0.0375 N.am      1 <0>        -0.6720
      8 C7          3.6447   -1.9949    0.0568 C.2       1 <0>         0.5096
      9 O1          2.6055   -2.6203    0.0643 O.2       1 <0>        -0.4903
     10 C8          4.9618   -2.7209    0.1528 C.3       1 <0>        -0.1790
     11 C9          4.7083   -4.2267    0.2488 C.3       1 <0>         0.2247
     12 H1          4.0289   -4.4414    1.0737 H         1 <0>         0.1436
     13 N2          5.9851   -4.9480    0.4385 N.3       1 <0>        -0.6797
     14 C10         6.1302   -5.8472   -0.7287 C.3       1 <0>         0.1828
     15 H2          6.7336   -5.3714   -1.5018 H         1 <0>         0.0810
     16 O2          4.7803   -6.0571   -1.2017 O.3       1 <0>        -0.1743
     17 N3          4.1426   -4.7321   -1.0243 N.3       1 <0>        -0.4503
     18 C11         6.7514   -7.1548   -0.3100 C.2       1 <0>         0.5431
     19 O3          6.0860   -8.1687   -0.3066 O.2       1 <0>        -0.4959
     20 N4          8.0465   -7.1974    0.0608 N.am      1 <0>        -0.7280
     21 C12         8.6504   -8.4685    0.4680 C.3       1 <0>         0.1272
     22 C13        10.1178   -8.2411    0.8365 C.3       1 <0>        -0.1039
     23 C14        10.7390   -9.5487    1.2553 C.2       1 <0>         0.0697
     24 C15        11.4468  -10.3989    0.4770 C.ar      1 <0>        -0.1664
     25 C16        11.8343  -10.3627   -0.9382 C.ar      1 <0>        -0.0136
     26 C17        12.5606  -11.3844   -1.4458 C.ar      1 <0>        -0.1495
     27 C18        12.9512  -12.4746   -0.6562 C.ar      1 <0>         0.0546
     28 C19        12.6333  -12.5789    0.6515 C.ar      1 <0>        -0.2094
     29 C20        11.8722  -11.5609    1.2895 C.ar      1 <0>         0.3279
     30 N5         11.4440  -11.4341    2.5221 N.pl3     1 <0>        -0.5841
     31 C21        10.7029  -10.1727    2.6324 C.3       1 <0>         0.0602
     32 H3         -0.9594    1.9049    0.0433 H         1 <0>         0.1261
     33 H4         -0.6821   -0.1608    1.3522 H         1 <0>         0.1279
     34 H5          1.4644   -1.3643    1.3164 H         1 <0>         0.1334
     35 H6          3.0605    1.5809   -1.3416 H         1 <0>         0.1247
     36 H7          0.9101    2.7772   -1.2987 H         1 <0>         0.1283
     37 H8          4.4517   -0.1559   -0.1206 H         1 <0>         0.4105
     38 H9          5.5591   -2.5088   -0.7339 H         1 <0>         0.1019
     39 H10         5.4977   -2.3854    1.0407 H         1 <0>         0.1246
     40 H11         6.7592   -4.3035    0.4969 H         1 <0>         0.3560
     41 H12         4.3698   -4.1163   -1.7906 H         1 <0>         0.3427
     42 H13         8.5787   -6.3864    0.0581 H         1 <0>         0.4047
     43 H14         8.1160   -8.8645    1.3315 H         1 <0>         0.0812
     44 H15         8.5886   -9.1803   -0.3553 H         1 <0>         0.0809
     45 H16        10.6521   -7.8451   -0.0271 H         1 <0>         0.1159
     46 H17        10.1796   -7.5294    1.6597 H         1 <0>         0.1200
     47 H18        11.5434   -9.5326   -1.5650 H         1 <0>         0.1604
     48 H19        12.8467  -11.3598   -2.4869 H         1 <0>         0.1582
     49 H20        13.5299  -13.2638   -1.1130 H         1 <0>         0.1614
     50 H21        12.9585  -13.4401    1.2163 H         1 <0>         0.1610
     51 H22        11.1834   -9.5142    3.3560 H         1 <0>         0.1756
     52 H23         9.6725  -10.3695    2.9288 H         1 <0>         0.1753
     53 H24        11.5953  -12.0666    3.2418 H         1 <0>         0.4565
@<TRIPOS>BOND
     1    1    6 ar
     2    1    2 ar
     3    1   32 1
     4    2    3 ar
     5    2   33 1
     6    3    4 ar
     7    3   34 1
     8    4    5 ar
     9    4    7 1
    10    5    6 ar
    11    5   35 1
    12    6   36 1
    13    7    8 am
    14    7   37 1
    15    8    9 2
    16    8   10 1
    17   10   11 1
    18   10   38 1
    19   10   39 1
    20   11   12 1
    21   11   17 1
    22   11   13 1
    23   13   14 1
    24   13   40 1
    25   14   15 1
    26   14   16 1
    27   14   18 1
    28   16   17 1
    29   17   41 1
    30   18   19 2
    31   18   20 am
    32   20   21 1
    33   20   42 1
    34   21   22 1
    35   21   43 1
    36   21   44 1
    37   22   23 1
    38   22   45 1
    39   22   46 1
    40   23   31 1
    41   23   24 2
    42   24   29 ar
    43   24   25 ar
    44   25   26 ar
    45   25   47 1
    46   26   27 ar
    47   26   48 1
    48   27   28 ar
    49   27   49 1
    50   28   29 ar
    51   28   50 1
    52   29   30 2
    53   30   31 1
    54   30   53 1
    55   31   51 1
    56   31   52 1
@<TRIPOS>MOLECULE
ZINC67481927
   54    55     0     0     0
SMALL
USER_CHARGES

@<TRIPOS>ATOM
      1 C1          2.6377   -1.9361    0.4185 C.3       1 <0>        -0.1268
      2 C2          4.1402   -2.1330    0.2069 C.3       1 <0>        -0.1216
      3 C3          4.4058   -2.4990   -1.2547 C.3       1 <0>        -0.1115
      4 C4          3.6683   -3.7948   -1.5981 C.3       1 <0>        -0.1125
      5 C5          2.1659   -3.5980   -1.3865 C.3       1 <0>        -0.1298
      6 C6          1.9003   -3.2320    0.0751 C.3       1 <0>        -0.1185
      7 C7          3.9339   -4.1609   -3.0597 C.3       1 <0>        -0.0098
      8 N1          3.3256   -5.4647   -3.3563 N.4       1 <0>        -0.3954
      9 C8          4.0090   -6.5208   -2.5796 C.3       1 <0>        -0.0114
     10 C9          4.0319   -7.7515   -3.5201 C.3       1 <0>        -0.1429
     11 C10         4.2679   -7.0859   -4.9014 C.3       1 <0>        -0.1310
     12 C11         3.4746   -5.7668   -4.7917 C.3       1 <0>         0.0107
     13 H1          4.0214   -4.9631   -5.2850 H         1 <0>         0.1487
     14 C12         2.0962   -5.9334   -5.4344 C.3       1 <0>         0.1183
     15 N2          1.2888   -4.7388   -5.1751 N.am      1 <0>        -0.7622
     16 C13         0.0295   -4.6606   -5.6489 C.2       1 <0>         0.7173
     17 O1         -0.4365   -5.5815   -6.2916 O.2       1 <0>        -0.5672
     18 N3         -0.7133   -3.5616   -5.4103 N.am      1 <0>        -0.7062
     19 C14        -2.0821   -3.4766   -5.9253 C.3       1 <0>         0.1255
     20 C15        -2.8821   -2.5271   -5.0712 C.2       1 <0>         0.5252
     21 O2         -2.3218   -1.6413   -4.4611 O.2       1 <0>        -0.5171
     22 N4         -4.2203   -2.6624   -4.9853 N.am      1 <0>        -0.8382
     23 C16        -2.0542   -2.9729   -7.3454 C.2       1 <0>         0.5148
     24 O3         -1.1144   -2.3136   -7.7366 O.2       1 <0>        -0.5150
     25 N5         -3.0736   -3.2551   -8.1806 N.am      1 <0>        -0.8426
     26 H2          2.4485   -1.6754    1.4598 H         1 <0>         0.0716
     27 H3          2.2820   -1.1335   -0.2275 H         1 <0>         0.0675
     28 H4          4.6656   -1.2098    0.4515 H         1 <0>         0.0746
     29 H5          4.4960   -2.9356    0.8529 H         1 <0>         0.0664
     30 H6          4.0500   -1.6964   -1.9007 H         1 <0>         0.0750
     31 H7          5.4762   -2.6393   -1.4055 H         1 <0>         0.0741
     32 H8          4.0241   -4.5975   -0.9521 H         1 <0>         0.0958
     33 H9          1.8101   -2.7954   -2.0325 H         1 <0>         0.0790
     34 H10         1.6405   -4.5212   -1.6311 H         1 <0>         0.0529
     35 H11         2.2561   -4.0346    0.7211 H         1 <0>         0.0669
     36 H12         0.8299   -3.0917    0.2258 H         1 <0>         0.0731
     37 H13         3.4994   -3.4010   -3.7093 H         1 <0>         0.1264
     38 H14         5.0090   -4.2141   -3.2314 H         1 <0>         0.1364
     39 H15         5.0250   -6.2130   -2.3326 H         1 <0>         0.1360
     40 H16         3.4490   -6.7470   -1.6722 H         1 <0>         0.1341
     41 H17         4.8519   -8.4227   -3.2649 H         1 <0>         0.1214
     42 H18         3.0775   -8.2775   -3.4981 H         1 <0>         0.1001
     43 H19         5.3281   -6.8862   -5.0569 H         1 <0>         0.1082
     44 H20         3.8705   -7.7091   -5.7025 H         1 <0>         0.1193
     45 H21         2.2107   -6.0681   -6.5100 H         1 <0>         0.1170
     46 H22         1.6004   -6.8062   -5.0097 H         1 <0>         0.0978
     47 H23         1.6606   -4.0041   -4.6624 H         1 <0>         0.3926
     48 H24        -0.3415   -2.8269   -4.8976 H         1 <0>         0.4142
     49 H25        -2.5421   -4.4644   -5.8991 H         1 <0>         0.1372
     50 H26        -4.6605   -3.4128   -5.4143 H         1 <0>         0.4070
     51 H27        -4.7433   -2.0094   -4.4944 H         1 <0>         0.4169
     52 H28        -3.7903   -3.8409   -7.8906 H         1 <0>         0.4039
     53 H29        -3.0905   -2.8725   -9.0718 H         1 <0>         0.4132
     54 H30         2.3465   -5.4466   -3.1130 H         1 <0>         0.4206
@<TRIPOS>BOND
     1    1    6 1
     2    1    2 1
     3    1   26 1
     4    1   27 1
     5    2    3 1
     6    2   28 1
     7    2   29 1
     8    3    4 1
     9    3   30 1
    10    3   31 1
    11    4    5 1
    12    4    7 1
    13    4   32 1
    14    5    6 1
    15    5   33 1
    16    5   34 1
    17    6   35 1
    18    6   36 1
    19    7    8 1
    20    7   37 1
    21    7   38 1
    22    8   12 1
    23    8    9 1
    24    8   54 1
    25    9   10 1
    26    9   39 1
    27    9   40 1
    28   10   11 1
    29   10   41 1
    30   10   42 1
    31   11   12 1
    32   11   43 1
    33   11   44 1
    34   12   13 1
    35   12   14 1
    36   14   15 1
    37   14   45 1
    38   14   46 1
    39   15   16 am
    40   15   47 1
    41   16   17 2
    42   16   18 am
    43   18   19 1
    44   18   48 1
    45   19   20 1
    46   19   23 1
    47   19   49 1
    48   20   21 2
    49   20   22 am
    50   22   50 1
    51   22   51 1
    52   23   24 2
    53   23   25 am
    54   25   52 1
    55   25   53 1
@<TRIPOS>MOLECULE
ZINC22061868
   62    63     0     0     0
SMALL
USER_CHARGES
(2S,4S)-N-[(1R,2R)-2-hydroxy-1-[(2S,3R,4R,5S,6R)-3,4,5-trihydroxy-6-methylsulfanyl-tetrahydropyran-2-yl]propyl]-1-methyl-4-propyl-pyrrolidine-2-carboxamide
@<TRIPOS>ATOM
      1 C1         -4.5869   -3.5993    0.3321 C.3       1 <0>        -0.1609
      2 C2         -3.7779   -2.3490    0.6829 C.3       1 <0>        -0.1286
      3 C3         -2.3072   -2.7284    0.8678 C.3       1 <0>        -0.1228
      4 C4         -1.4982   -1.4781    1.2186 C.3       1 <0>        -0.1090
      5 H1         -2.0301   -1.0138    2.0621 H         1 <0>         0.1158
      6 C5         -0.0254   -1.8488    1.5354 C.3       1 <0>        -0.1266
      7 C6          0.7107   -0.5309    1.1878 C.3       1 <0>         0.0148
      8 H2          0.7110    0.2101    2.0008 H         1 <0>         0.1599
      9 N1          0.0021   -0.0041    0.0020 N.4       1 <0>        -0.3932
     10 C7         -1.3671   -0.5510   -0.0081 C.3       1 <0>        -0.0070
     11 C8         -0.0178    1.4648    0.0101 C.3       1 <0>        -0.0482
     12 C9          2.1550   -0.8055    0.8568 C.2       1 <0>         0.5063
     13 O1          2.5015   -0.9163   -0.3001 O.2       1 <0>        -0.5202
     14 N2          3.0617   -0.9279    1.8465 N.am      1 <0>        -0.7029
     15 C10         4.4658   -1.1948    1.5248 C.3       1 <0>         0.1828
     16 H3          4.6913   -0.6613    0.5897 H         1 <0>         0.1230
     17 C11         5.3549   -0.6879    2.6620 C.3       1 <0>         0.0948
     18 H4          6.4195   -0.8489    2.4369 H         1 <0>         0.0985
     19 C12         5.0583    0.7915    2.9213 C.3       1 <0>         0.1106
     20 H5          3.9864    0.9615    3.1008 H         1 <0>         0.0648
     21 C13         5.9084    1.2756    4.1000 C.3       1 <0>         0.0956
     22 H6          6.9802    1.2749    3.8524 H         1 <0>         0.0738
     23 C14         5.6127    0.4006    5.3220 C.3       1 <0>         0.0792
     24 H7          4.5817    0.5410    5.6787 H         1 <0>         0.0745
     25 C15         5.8878   -1.0637    4.9700 C.3       1 <0>         0.0789
     26 H8          6.8963   -1.0879    4.5315 H         1 <0>         0.0876
     27 O2          5.0885   -1.4408    3.8470 O.3       1 <0>        -0.3705
     28 S1          5.4726   -2.1152    6.3886 S.3       1 <0>        -0.1716
     29 C16         6.1286   -3.7443    5.9342 C.3       1 <0>        -0.1298
     30 O3          6.4521    0.7978    6.4081 O.3       1 <0>        -0.5876
     31 O4          5.5845    2.6356    4.3962 O.3       1 <0>        -0.5957
     32 O5          5.3790    1.5541    1.7562 O.3       1 <0>        -0.5853
     33 C17         4.6713   -2.7008    1.3492 C.3       1 <0>         0.1058
     34 H9          4.4696   -3.2427    2.2850 H         1 <0>         0.0639
     35 C18         3.7822   -3.2077    0.2119 C.3       1 <0>        -0.1777
     36 O6          6.0409   -2.9612    1.0353 O.3       1 <0>        -0.5970
     37 H10        -5.6442   -3.3265    0.1992 H         1 <0>         0.0619
     38 H11        -4.4973   -4.3342    1.1457 H         1 <0>         0.0593
     39 H12        -4.2008   -4.0360   -0.6007 H         1 <0>         0.0571
     40 H13        -3.8675   -1.6141   -0.1307 H         1 <0>         0.0618
     41 H14        -4.1640   -1.9122    1.6157 H         1 <0>         0.0686
     42 H15        -2.2176   -3.4633    1.6814 H         1 <0>         0.0850
     43 H16        -1.9211   -3.1652   -0.0650 H         1 <0>         0.0727
     44 H17         0.0624   -2.1281    2.5957 H         1 <0>         0.1259
     45 H18         0.2828   -2.6968    0.9062 H         1 <0>         0.1082
     46 H19        -1.5453   -1.1302   -0.9261 H         1 <0>         0.1365
     47 H20        -2.1076    0.2592    0.0638 H         1 <0>         0.1362
     48 H21        -0.5498    1.8292   -0.8811 H         1 <0>         0.1298
     49 H22         1.0142    1.8455    0.0023 H         1 <0>         0.1219
     50 H23        -0.5327    1.8195    0.9151 H         1 <0>         0.1204
     51 H24         2.7474   -0.8274    2.8958 H         1 <0>         0.4370
     52 H25         5.9230   -4.4609    6.7430 H         1 <0>         0.1113
     53 H26         7.2148   -3.6712    5.7763 H         1 <0>         0.0845
     54 H27         5.6458   -4.0886    5.0077 H         1 <0>         0.0864
     55 H28         6.3817    0.2794    7.3757 H         1 <0>         0.4248
     56 H29         6.0975    3.1567    5.2180 H         1 <0>         0.4295
     57 H30         5.2308    2.6441    1.7543 H         1 <0>         0.4248
     58 H31         3.9300   -4.2904    0.0857 H         1 <0>         0.0582
     59 H32         4.0495   -2.6899   -0.7211 H         1 <0>         0.0742
     60 H33         2.7279   -3.0072    0.4535 H         1 <0>         0.0527
     61 H34         6.3810   -3.9946    0.8725 H         1 <0>         0.4194
     62 H35         0.5287   -0.3099   -0.9141 H         1 <0>         0.4561
@<TRIPOS>BOND
     1    1    2 1
     2    1   37 1
     3    1   38 1
     4    1   39 1
     5    2    3 1
     6    2   40 1
     7    2   41 1
     8    3    4 1
     9    3   42 1
    10    3   43 1
    11    4    5 1
    12    4   10 1
    13    4    6 1
    14    6    7 1
    15    6   44 1
    16    6   45 1
    17    7    8 1
    18    7    9 1
    19    7   12 1
    20    9   10 1
    21    9   11 1
    22    9   62 1
    23   10   46 1
    24   10   47 1
    25   11   48 1
    26   11   49 1
    27   11   50 1
    28   12   13 2
    29   12   14 am
    30   14   15 1
    31   14   51 1
    32   15   16 1
    33   15   17 1
    34   15   33 1
    35   17   18 1
    36   17   27 1
    37   17   19 1
    38   19   20 1
    39   19   21 1
    40   19   32 1
    41   21   22 1
    42   21   23 1
    43   21   31 1
    44   23   24 1
    45   23   25 1
    46   23   30 1
    47   25   26 1
    48   25   27 1
    49   25   28 1
    50   28   29 1
    51   29   52 1
    52   29   53 1
    53   29   54 1
    54   30   55 1
    55   31   56 1
    56   32   57 1
    57   33   34 1
    58   33   35 1
    59   33   36 1
    60   35   58 1
    61   35   59 1
    62   35   60 1
    63   36   61 1
@<TRIPOS>MOLECULE
ZINC40779620
   42    44     0     0     0
SMALL
USER_CHARGES

@<TRIPOS>ATOM
      1 C1          1.1294   -0.7095   -0.0087 C.ar      1 <0>        -0.0337
      2 C2          2.3497   -0.0577   -0.0209 C.ar      1 <0>        -0.2044
      3 C3          2.3742    1.3328   -0.0103 C.ar      1 <0>         0.3740
      4 N1          1.2469    2.0270    0.0112 N.ar      1 <0>        -0.4514
      5 C4          0.0687    1.4335    0.0233 C.ar      1 <0>         0.1529
      6 C5         -0.0302    0.0551    0.0138 C.ar      1 <0>        -0.1279
      7 Cl1        -1.5871   -0.7127    0.0300 Cl        1 <0>        -0.0534
      8 N2          3.5953    2.0009   -0.0220 N.pl3     1 <0>        -0.6349
      9 C6          3.6282    3.3881   -0.1203 C.ar      1 <0>         0.3801
     10 C7          4.8450    4.0615   -0.2403 C.ar      1 <0>         0.0139
     11 C8          4.8211    5.4542   -0.3361 C.ar      1 <0>         0.3950
     12 N3          3.6479    6.0820   -0.3096 N.ar      1 <0>        -0.5655
     13 C9          2.5215    5.4080   -0.1949 C.ar      1 <0>         0.3167
     14 N4          2.4997    4.0934   -0.1070 N.ar      1 <0>        -0.4975
     15 N5          6.0039    6.1737   -0.4569 N.pl3     1 <0>        -0.7253
     16 C10         5.9656    7.6348   -0.5566 C.3       1 <0>         0.1418
     17 C11         7.3918    8.1751   -0.6793 C.3       1 <0>        -0.1558
     18 C12         7.3518    9.7010   -0.7834 C.3       1 <0>         0.0960
     19 N6          8.7173   10.2184   -0.9009 N.pl3     1 <0>        -0.4080
     20 C13         9.5420   10.5763    0.1313 C.2       1 <0>         0.0257
     21 C14        10.6973   10.9945   -0.4199 C.2       1 <0>         0.0039
     22 N7         10.5812   10.8948   -1.7524 N.pl3     1 <0>        -0.4763
     23 C15         9.3997   10.4259   -2.0477 C.cat     1 <0>         0.2884
     24 N8          6.0597    3.3576   -0.2636 N.pl3     1 <0>        -0.8764
     25 H1          1.0794   -1.7883   -0.0209 H         1 <0>         0.1485
     26 H2          3.2709   -0.6211   -0.0381 H         1 <0>         0.1414
     27 H3         -0.8299    2.0324    0.0411 H         1 <0>         0.1689
     28 H4          4.4232    1.4992    0.0385 H         1 <0>         0.4226
     29 H5          1.5872    5.9494   -0.1763 H         1 <0>         0.1985
     30 H6          6.8549    5.7084   -0.4751 H         1 <0>         0.4030
     31 H7          5.3906    7.9240   -1.4362 H         1 <0>         0.0742
     32 H8          5.4962    8.0477    0.3363 H         1 <0>         0.0745
     33 H9          7.9668    7.8859    0.2003 H         1 <0>         0.0863
     34 H10         7.8612    7.7622   -1.5722 H         1 <0>         0.0842
     35 H11         6.7767    9.9903   -1.6630 H         1 <0>         0.1273
     36 H12         6.8824   10.1140    0.1095 H         1 <0>         0.1299
     37 H13         9.3105   10.5320    1.1853 H         1 <0>         0.2232
     38 H14        11.5651   11.3483    0.1168 H         1 <0>         0.2240
     39 H15         9.0282   10.2374   -3.0441 H         1 <0>         0.2600
     40 H16         6.0609    2.3900   -0.1958 H         1 <0>         0.3961
     41 H17         6.8976    3.8390   -0.3475 H         1 <0>         0.3937
     42 H18        11.2685   11.1305   -2.3951 H         1 <0>         0.4657
@<TRIPOS>BOND
     1    1    6 ar
     2    1    2 ar
     3    1   25 1
     4    2    3 ar
     5    2   26 1
     6    3    4 ar
     7    3    8 1
     8    4    5 ar
     9    5    6 ar
    10    5   27 1
    11    6    7 1
    12    8    9 1
    13    8   28 1
    14    9   14 ar
    15    9   10 ar
    16   10   11 ar
    17   10   24 1
    18   11   12 ar
    19   11   15 1
    20   12   13 ar
    21   13   14 ar
    22   13   29 1
    23   15   16 1
    24   15   30 1
    25   16   17 1
    26   16   31 1
    27   16   32 1
    28   17   18 1
    29   17   33 1
    30   17   34 1
    31   18   19 1
    32   18   35 1
    33   18   36 1
    34   19   23 1
    35   19   20 1
    36   20   21 2
    37   20   37 1
    38   21   22 1
    39   21   38 1
    40   22   23 2
    41   22   42 1
    42   23   39 1
    43   24   40 1
    44   24   41 1
@<TRIPOS>MOLECULE
ZINC03884514
   42    44     0     0     0
SMALL
USER_CHARGES

@<TRIPOS>ATOM
      1 C1         -0.0184    1.5028    0.0103 C.3       1 <0>        -0.1140
      2 C2          0.0021   -0.0041    0.0020 C.2       1 <0>         0.2417
      3 C3         -1.0816   -0.8077    0.0026 C.2       1 <0>        -0.2881
      4 C4         -0.6339   -2.1482   -0.0076 C.2       1 <0>         0.5517
      5 O1         -1.3383   -3.1412   -0.0100 O.2       1 <0>        -0.4721
      6 N1          0.7146   -2.1284   -0.0142 N.am      1 <0>        -0.3748
      7 N2          1.1205   -0.7873   -0.0133 N.pl3     1 <0>        -0.4963
      8 H1          2.0371   -0.4702   -0.0207 H         1 <0>         0.4563
      9 C5          1.5412   -3.2255   -0.0248 C.cat     1 <0>         0.7644
     10 N3          2.8622   -3.0633   -0.0304 N.pl3     1 <0>        -0.7776
     11 N4          1.0212   -4.4506   -0.0295 N.pl3     1 <0>        -0.7495
     12 C6         -2.5190   -0.3550    0.0125 C.3       1 <0>        -0.0311
     13 C7         -3.0503   -0.3131   -1.4217 C.3       1 <0>        -0.1337
     14 C8         -4.5096    0.1466   -1.4117 C.3       1 <0>         0.1093
     15 N5         -5.0184    0.1867   -2.7850 N.am      1 <0>        -0.5780
     16 C9         -4.9460    1.2601   -3.5925 C.2       1 <0>         0.5770
     17 O2         -4.4567    2.3333   -3.3029 O.2       1 <0>        -0.4611
     18 C10        -5.5617    0.9149   -4.8912 C.ar      1 <0>        -0.1458
     19 C11        -5.7697    1.6017   -6.0766 C.ar      1 <0>        -0.0425
     20 C12        -6.3971    0.9673   -7.1373 C.ar      1 <0>        -0.0926
     21 C13        -6.8163   -0.3447   -7.0203 C.ar      1 <0>        -0.0922
     22 C14        -6.6150   -1.0441   -5.8407 C.ar      1 <0>        -0.0431
     23 C15        -5.9891   -0.4228   -4.7719 C.ar      1 <0>        -0.1450
     24 C16        -5.6143   -0.8470   -3.4064 C.2       1 <0>         0.5750
     25 O3         -5.8127   -1.9443   -2.9254 O.2       1 <0>        -0.4581
     26 H2          1.0042    1.8801    0.0026 H         1 <0>         0.0898
     27 H3         -0.5455    1.8639   -0.8728 H         1 <0>         0.1154
     28 H4         -0.5286    1.8543    0.9071 H         1 <0>         0.1165
     29 H5          3.2412   -2.1704   -0.0270 H         1 <0>         0.4394
     30 H6          0.0584   -4.5688   -0.0254 H         1 <0>         0.4553
     31 H7          1.6049   -5.2252   -0.0370 H         1 <0>         0.4486
     32 H8         -3.1155   -1.0522    0.6007 H         1 <0>         0.0889
     33 H9         -2.5835    0.6400    0.4530 H         1 <0>         0.0913
     34 H10        -2.4538    0.3842   -2.0100 H         1 <0>         0.0718
     35 H11        -2.9858   -1.3080   -1.8623 H         1 <0>         0.0714
     36 H12        -5.1062   -0.5507   -0.8234 H         1 <0>         0.1009
     37 H13        -4.5741    1.1415   -0.9712 H         1 <0>         0.1016
     38 H14        -5.4446    2.6271   -6.1735 H         1 <0>         0.1440
     39 H15        -6.5599    1.5019   -8.0615 H         1 <0>         0.1457
     40 H16        -7.3044   -0.8280   -7.8537 H         1 <0>         0.1456
     41 H17        -6.9449   -2.0689   -5.7548 H         1 <0>         0.1436
     42 H18         3.4459   -3.8379   -0.0379 H         1 <0>         0.4503
@<TRIPOS>BOND
     1    1    2 1
     2    1   26 1
     3    1   27 1
     4    1   28 1
     5    2    7 1
     6    2    3 2
     7    3    4 1
     8    3   12 1
     9    4    5 2
    10    4    6 am
    11    6    7 1
    12    6    9 1
    13    7    8 1
    14    9   10 2
    15    9   11 1
    16   10   29 1
    17   10   42 1
    18   11   30 1
    19   11   31 1
    20   12   13 1
    21   12   32 1
    22   12   33 1
    23   13   14 1
    24   13   34 1
    25   13   35 1
    26   14   15 1
    27   14   36 1
    28   14   37 1
    29   15   24 am
    30   15   16 am
    31   16   17 2
    32   16   18 1
    33   18   23 ar
    34   18   19 ar
    35   19   20 ar
    36   19   38 1
    37   20   21 ar
    38   20   39 1
    39   21   22 ar
    40   21   40 1
    41   22   23 ar
    42   22   41 1
    43   23   24 1
    44   24   25 2
@<TRIPOS>MOLECULE
ZINC63807276
   44    46     0     0     0
SMALL
USER_CHARGES

@<TRIPOS>ATOM
      1 C1          1.3250    1.2516   -0.3519 C.3       1 <0>         0.0302
      2 O1          1.1347   -0.1632   -0.2864 O.3       1 <0>        -0.3847
      3 C2         -0.2173   -0.5779   -0.4917 C.3       1 <0>         0.1541
      4 C3         -0.3012   -2.0798   -0.4017 C.2       1 <0>         0.0386
      5 N1         -0.5261   -2.8530    0.6418 N.2       1 <0>        -0.2115
      6 N2         -0.5537   -4.1063    0.4837 N.2       1 <0>        -0.2952
      7 C4         -0.3638   -4.6641   -0.6958 C.2       1 <0>         0.2157
      8 N3         -0.3619   -6.0120   -1.0384 N.am      1 <0>        -0.5965
      9 C5         -0.5759   -6.9480   -0.0927 C.2       1 <0>         0.5225
     10 O2         -0.6794   -6.6219    1.0709 O.2       1 <0>        -0.4321
     11 C6         -0.6864   -8.4000   -0.4809 C.3       1 <0>         0.0612
     12 C7          0.7135   -8.9778   -0.6980 C.3       1 <0>        -0.1037
     13 C8          1.5218   -8.8559    0.5953 C.3       1 <0>        -0.1268
     14 C9          0.8180   -9.6301    1.7115 C.3       1 <0>        -0.1230
     15 C10        -0.5820   -9.0523    1.9287 C.3       1 <0>        -0.1412
     16 C11        -1.3903   -9.1742    0.6353 C.3       1 <0>        -0.1398
     17 N4         -1.4625   -8.5171   -1.7227 N.3       1 <0>        -0.3198
     18 C12        -1.6632   -9.9431   -2.0931 C.3       1 <0>         0.1196
     19 N5         -2.8807   -9.8872   -2.9451 N.3       1 <0>        -0.4448
     20 N6         -3.7142   -8.8605   -2.3136 N.4       1 <0>        -0.2583
     21 N7         -2.8211   -7.9977   -1.5438 N.3       1 <0>        -0.3224
     22 S1         -0.1316   -3.3162   -1.6814 S.3       1 <0>         0.1191
     23 H1          2.3768    1.4847   -0.1860 H         1 <0>         0.0965
     24 H2          1.0232    1.6137   -1.3346 H         1 <0>         0.0496
     25 H3          0.7203    1.7354    0.4151 H         1 <0>         0.0514
     26 H4         -0.8541   -0.1320    0.2724 H         1 <0>         0.0988
     27 H5         -0.5511   -0.2537   -1.4773 H         1 <0>         0.0867
     28 H6          0.6335  -10.0280   -0.9789 H         1 <0>         0.0907
     29 H7          1.2149   -8.4263   -1.4933 H         1 <0>         0.0910
     30 H8          2.5192   -9.2676    0.4406 H         1 <0>         0.0876
     31 H9          1.6018   -7.8057    0.8761 H         1 <0>         0.0720
     32 H10         0.7380  -10.6803    1.4307 H         1 <0>         0.0653
     33 H11         1.3938   -9.5433    2.6329 H         1 <0>         0.0793
     34 H12        -1.0834   -9.6039    2.7239 H         1 <0>         0.0769
     35 H13        -0.5020   -8.0021    2.2095 H         1 <0>         0.1170
     36 H14        -2.3876   -8.7625    0.7900 H         1 <0>         0.0666
     37 H15        -1.4702  -10.2244    0.3545 H         1 <0>         0.0884
     38 H16        -0.8114  -10.3193   -2.6597 H         1 <0>         0.1719
     39 H17        -1.8390  -10.5522   -1.2065 H         1 <0>         0.1294
     40 H18        -2.6474   -9.6311   -3.8927 H         1 <0>         0.4091
     41 H19        -4.1888   -8.3200   -3.0212 H         1 <0>         0.4611
     42 H20        -3.0792   -7.9884   -0.5684 H         1 <0>         0.3745
     43 H21        -0.2067   -6.2784   -1.9581 H         1 <0>         0.4329
     44 H22        -4.3871   -9.2940   -1.6994 H         1 <0>         0.4421
@<TRIPOS>BOND
     1    1    2 1
     2    1   23 1
     3    1   24 1
     4    1   25 1
     5    2    3 1
     6    3    4 1
     7    3   26 1
     8    3   27 1
     9    4   22 1
    10    4    5 2
    11    5    6 1
    12    6    7 2
    13    7    8 1
    14    7   22 1
    15    8    9 am
    16    8   43 1
    17    9   10 2
    18    9   11 1
    19   11   16 1
    20   11   12 1
    21   11   17 1
    22   12   13 1
    23   12   28 1
    24   12   29 1
    25   13   14 1
    26   13   30 1
    27   13   31 1
    28   14   15 1
    29   14   32 1
    30   14   33 1
    31   15   16 1
    32   15   34 1
    33   15   35 1
    34   16   36 1
    35   16   37 1
    36   17   21 1
    37   17   18 1
    38   18   19 1
    39   18   38 1
    40   18   39 1
    41   19   20 1
    42   19   40 1
    43   20   21 1
    44   20   41 1
    45   20   44 1
    46   21   42 1
@<TRIPOS>MOLECULE
ZINC67481926
   54    55     0     0     0
SMALL
USER_CHARGES

@<TRIPOS>ATOM
      1 C1          0.9868   -0.4706    0.2852 C.3       1 <0>        -0.1264
      2 C2          1.7366   -1.7542    0.6474 C.3       1 <0>        -0.1188
      3 C3          2.7194   -2.1039   -0.4718 C.3       1 <0>        -0.1296
      4 C4          1.9510   -2.3135   -1.7782 C.3       1 <0>        -0.1139
      5 C5          1.2013   -1.0299   -2.1404 C.3       1 <0>        -0.1106
      6 C6          0.2185   -0.6802   -1.0212 C.3       1 <0>        -0.1217
      7 C7          2.9338   -2.6631   -2.8974 C.3       1 <0>        -0.0100
      8 N1          3.5881   -3.9426   -2.5926 N.4       1 <0>        -0.3961
      9 C8          2.5946   -5.0359   -2.6514 C.3       1 <0>        -0.0165
     10 C9          2.7327   -5.6195   -4.0797 C.3       1 <0>        -0.1380
     11 C10         4.2635   -5.5212   -4.3116 C.3       1 <0>        -0.1321
     12 C11         4.6413   -4.2112   -3.5889 C.3       1 <0>         0.0119
     13 H1          4.6901   -3.3924   -4.3067 H         1 <0>         0.1482
     14 C12         5.9915   -4.3741   -2.8880 C.3       1 <0>         0.1183
     15 N2          6.2605   -3.1919   -2.0655 N.am      1 <0>        -0.7626
     16 C13         7.4010   -3.1130   -1.3518 C.2       1 <0>         0.7176
     17 O1          8.2066   -4.0228   -1.3904 O.2       1 <0>        -0.5669
     18 N3          7.6486   -2.0254   -0.5952 N.am      1 <0>        -0.7058
     19 C14         8.8883   -1.9396    0.1807 C.3       1 <0>         0.1250
     20 C15         9.2308   -0.4920    0.4217 C.2       1 <0>         0.5239
     21 O2          8.3508    0.3419    0.4561 O.2       1 <0>        -0.5167
     22 N4         10.5152   -0.1239    0.5991 N.am      1 <0>        -0.8386
     23 C16         8.7029   -2.6388    1.5028 C.2       1 <0>         0.5172
     24 O3          7.5877   -2.8059    1.9492 O.2       1 <0>        -0.5183
     25 N5          9.7764   -3.0784    2.1890 N.am      1 <0>        -0.8423
     26 H2          0.2867   -0.2215    1.0826 H         1 <0>         0.0715
     27 H3          1.7002    0.3440    0.1605 H         1 <0>         0.0671
     28 H4          2.2840   -1.6049    1.5781 H         1 <0>         0.0744
     29 H5          1.0232   -2.5688    0.7722 H         1 <0>         0.0669
     30 H6          3.4328   -1.2893   -0.5965 H         1 <0>         0.0786
     31 H7          3.2535   -3.0183   -0.2137 H         1 <0>         0.0542
     32 H8          1.2376   -3.1281   -1.6534 H         1 <0>         0.0958
     33 H9          1.9147   -0.2153   -2.2651 H         1 <0>         0.0747
     34 H10         0.6539   -1.1792   -3.0711 H         1 <0>         0.0739
     35 H11        -0.4949   -1.4948   -0.8964 H         1 <0>         0.0664
     36 H12        -0.3157    0.2342   -1.2792 H         1 <0>         0.0744
     37 H13         2.3950   -2.7464   -3.8412 H         1 <0>         0.1356
     38 H14         3.6874   -1.8797   -2.9772 H         1 <0>         0.1266
     39 H15         2.8241   -5.7977   -1.9064 H         1 <0>         0.1342
     40 H16         1.5893   -4.6438   -2.4973 H         1 <0>         0.1383
     41 H17         2.3987   -6.6566   -4.1117 H         1 <0>         0.1210
     42 H18         2.1884   -5.0131   -4.8036 H         1 <0>         0.0993
     43 H19         4.7768   -6.3712   -3.8620 H         1 <0>         0.1070
     44 H20         4.4884   -5.4528   -5.3760 H         1 <0>         0.1191
     45 H21         5.9670   -5.2601   -2.2536 H         1 <0>         0.0974
     46 H22         6.7777   -4.4836   -3.6349 H         1 <0>         0.1180
     47 H23         5.6179   -2.4660   -2.0347 H         1 <0>         0.3929
     48 H24         7.0059   -1.2995   -0.5643 H         1 <0>         0.4141
     49 H25         9.6970   -2.4171   -0.3726 H         1 <0>         0.1388
     50 H26        11.2251   -0.7774    0.5002 H         1 <0>         0.4070
     51 H27        10.7296    0.7946    0.8257 H         1 <0>         0.4172
     52 H28        10.6706   -2.8812    1.8689 H         1 <0>         0.4037
     53 H29         9.6548   -3.5919    3.0029 H         1 <0>         0.4131
     54 H30         3.9950   -3.9054   -1.6700 H         1 <0>         0.4216
@<TRIPOS>BOND
     1    1    6 1
     2    1    2 1
     3    1   26 1
     4    1   27 1
     5    2    3 1
     6    2   28 1
     7    2   29 1
     8    3    4 1
     9    3   30 1
    10    3   31 1
    11    4    5 1
    12    4    7 1
    13    4   32 1
    14    5    6 1
    15    5   33 1
    16    5   34 1
    17    6   35 1
    18    6   36 1
    19    7    8 1
    20    7   37 1
    21    7   38 1
    22    8   12 1
    23    8    9 1
    24    8   54 1
    25    9   10 1
    26    9   39 1
    27    9   40 1
    28   10   11 1
    29   10   41 1
    30   10   42 1
    31   11   12 1
    32   11   43 1
    33   11   44 1
    34   12   13 1
    35   12   14 1
    36   14   15 1
    37   14   45 1
    38   14   46 1
    39   15   16 am
    40   15   47 1
    41   16   17 2
    42   16   18 am
    43   18   19 1
    44   18   48 1
    45   19   20 1
    46   19   23 1
    47   19   49 1
    48   20   21 2
    49   20   22 am
    50   22   50 1
    51   22   51 1
    52   23   24 2
    53   23   25 am
    54   25   52 1
    55   25   53 1
@<TRIPOS>MOLECULE
ZINC32851027
   49    52     0     0     0
SMALL
USER_CHARGES
6-amino-1-cyclopropyl-5-[2-[2-furylmethyl(2-thienylmethyl)amino]acetyl]pyrimidine-2,4-dione
@<TRIPOS>ATOM
      1 C1          3.4717   -2.0975   -4.4041 C.2       1 <0>        -0.2188
      2 C2          3.5611   -1.4866   -3.1322 C.2       1 <0>        -0.1380
      3 C3          3.2410   -2.4267   -2.2249 C.2       1 <0>        -0.1073
      4 O1          2.9698   -3.5697   -2.8758 O.3       1 <0>        -0.1680
      5 C4          3.1024   -3.3744   -4.1980 C.2       1 <0>         0.0114
      6 C5          3.2001   -2.2321   -0.7311 C.3       1 <0>         0.0891
      7 N1          1.8230   -1.9372   -0.3133 N.4       1 <0>        -0.3988
      8 C6          1.6360   -2.2148    1.1171 C.3       1 <0>         0.0923
      9 C7          1.6305   -3.7047    1.3431 C.2       1 <0>        -0.2551
     10 C8          2.6468   -4.5129    1.7320 C.2       1 <0>        -0.0893
     11 C9          2.4079   -5.8663    1.8801 C.2       1 <0>        -0.1772
     12 C10         1.1671   -6.3469    1.6220 C.2       1 <0>        -0.1276
     13 S1          0.2856   -4.8645    1.1606 S.3       1 <0>         0.0986
     14 C11         1.4621   -0.5493   -0.6318 C.3       1 <0>        -0.0356
     15 C12        -0.0169   -0.3534   -0.4189 C.2       1 <0>         0.4334
     16 O2         -0.7037   -1.2802   -0.0387 O.2       1 <0>        -0.5163
     17 C13        -0.6038    0.9069   -0.6614 C.2       1 <0>        -0.4771
     18 C14        -1.9960    1.0857   -0.5843 C.2       1 <0>         0.5832
     19 N2         -2.5168    2.3258   -0.8214 N.am      1 <0>        -0.5408
     20 C15        -1.7281    3.3652   -1.1360 C.2       1 <0>         0.7097
     21 O3         -2.2410    4.4475   -1.3433 O.2       1 <0>        -0.5103
     22 N3         -0.3931    3.2536   -1.2297 N.am      1 <0>        -0.6754
     23 H1          0.2153    4.1323   -1.4900 H         1 <0>         0.4710
     24 C16         0.2197    2.0724   -1.0082 C.2       1 <0>         0.5901
     25 O4          1.4299    1.9747   -1.0936 O.2       1 <0>        -0.5256
     26 C17        -3.9659    2.5239   -0.7371 C.3       1 <0>        -0.0479
     27 C18        -4.4688    3.7332    0.0537 C.3       1 <0>        -0.0973
     28 C19        -4.6282    2.3230    0.6274 C.3       1 <0>        -0.1171
     29 N4         -2.8109    0.0415   -0.2732 N.pl3     1 <0>        -0.8043
     30 H2          3.6629   -1.6288   -5.3581 H         1 <0>         0.1626
     31 H3          3.8335   -0.4616   -2.9282 H         1 <0>         0.1631
     32 H4          2.9444   -4.1179   -4.9652 H         1 <0>         0.2170
     33 H5          3.5462   -3.1494   -0.2323 H         1 <0>         0.1459
     34 H6          3.8554   -1.3936   -0.4525 H         1 <0>         0.1575
     35 H7          2.4581   -1.7601    1.6894 H         1 <0>         0.1441
     36 H8          0.6779   -1.7897    1.4509 H         1 <0>         0.1518
     37 H9          3.6279   -4.1050    1.9259 H         1 <0>         0.1419
     38 H10         3.1993   -6.5315    2.1925 H         1 <0>         0.1473
     39 H11         0.8056   -7.3629    1.6799 H         1 <0>         0.1973
     40 H12         2.0208    0.1346    0.0241 H         1 <0>         0.1703
     41 H13         1.7128   -0.3369   -1.6816 H         1 <0>         0.1644
     42 H14        -4.1052    2.1263   -1.7532 H         1 <0>         0.1483
     43 H15        -3.6273    4.4099    0.2634 H         1 <0>         0.1272
     44 H16        -5.2297    4.2660   -0.5355 H         1 <0>         0.1308
     45 H17        -5.5208    1.6905    0.5122 H         1 <0>         0.1268
     46 H18        -3.9184    1.8344    1.3111 H         1 <0>         0.1059
     47 H19        -3.8991    0.1914   -0.2153 H         1 <0>         0.4355
     48 H20        -2.3815   -0.9526   -0.0796 H         1 <0>         0.4653
     49 H21         1.1495   -2.5995   -0.8771 H         1 <0>         0.4460
@<TRIPOS>BOND
     1    1    5 2
     2    1    2 1
     3    1   30 1
     4    2    3 2
     5    2   31 1
     6    3    4 1
     7    3    6 1
     8    4    5 1
     9    5   32 1
    10    6    7 1
    11    6   33 1
    12    6   34 1
    13    7    8 1
    14    7   14 1
    15    7   49 1
    16    8    9 1
    17    8   35 1
    18    8   36 1
    19    9   13 1
    20    9   10 2
    21   10   11 1
    22   10   37 1
    23   11   12 2
    24   11   38 1
    25   12   13 1
    26   12   39 1
    27   14   15 1
    28   14   40 1
    29   14   41 1
    30   15   16 2
    31   15   17 1
    32   17   24 1
    33   17   18 2
    34   18   19 1
    35   18   29 1
    36   19   20 am
    37   19   26 1
    38   20   21 2
    39   20   22 am
    40   22   23 1
    41   22   24 am
    42   24   25 2
    43   26   28 1
    44   26   27 1
    45   26   42 1
    46   27   28 1
    47   27   43 1
    48   27   44 1
    49   28   45 1
    50   28   46 1
    51   29   47 1
    52   29   48 1
@<TRIPOS>MOLECULE
ZINC48155990
   46    48     0     0     0
SMALL
USER_CHARGES

@<TRIPOS>ATOM
      1 C1         -0.0184    1.5028    0.0103 C.3       1 <0>        -0.1407
      2 C2          0.0021   -0.0041    0.0020 C.ar      1 <0>         0.1726
      3 C3          0.0055   -0.6765   -1.2045 C.ar      1 <0>        -0.1618
      4 C4          0.0243   -2.0629   -1.2119 C.ar      1 <0>         0.0339
      5 C5          0.0392   -2.7323    0.0107 C.ar      1 <0>        -0.0614
      6 C6          0.0346   -1.9812    1.1935 C.ar      1 <0>         0.4539
      7 N1          0.0218   -0.6591    1.1478 N.ar      1 <0>        -0.4978
      8 N2          0.0493   -2.6290    2.4225 N.pl3     1 <0>        -0.8185
      9 C7          0.0591   -4.2160    0.0588 C.2       1 <0>        -0.2332
     10 C8          0.9400   -5.0124    0.8162 C.2       1 <0>         0.0531
     11 N3          0.6457   -6.2664    0.5953 N.2       1 <0>        -0.2383
     12 N4         -0.4258   -6.3201   -0.3043 N.pl3     1 <0>        -0.3476
     13 C9         -0.7764   -5.0558   -0.6180 C.2       1 <0>         0.1072
     14 C10        -1.0602   -7.5388   -0.8128 C.3       1 <0>         0.1178
     15 C11        -0.0143   -8.4272   -1.4358 C.2       1 <0>         0.5063
     16 O1          1.1469   -8.0768   -1.4533 O.2       1 <0>        -0.4960
     17 N5         -0.3691   -9.6110   -1.9735 N.am      1 <0>        -0.6212
     18 C12         0.6058  -10.4392   -2.5542 C.2       1 <0>         0.1912
     19 C13         1.9383  -10.1881   -2.6442 C.2       1 <0>        -0.0454
     20 N6          2.4801  -11.2631   -3.2797 N.pl3     1 <0>        -0.2805
     21 N7          1.5323  -12.0919   -3.5465 N.2       1 <0>        -0.0584
     22 N8          0.4067  -11.6360   -3.1239 N.2       1 <0>        -0.2792
     23 C14         3.8971  -11.4450   -3.6043 C.3       1 <0>         0.1373
     24 C15         4.2090  -10.7524   -4.9325 C.3       1 <0>        -0.1662
     25 C16         4.7567  -10.8336   -2.4961 C.3       1 <0>        -0.1662
     26 H1          1.0042    1.8801    0.0026 H         1 <0>         0.1128
     27 H2         -0.5455    1.8639   -0.8728 H         1 <0>         0.1167
     28 H3         -0.5286    1.8543    0.9071 H         1 <0>         0.0935
     29 H4         -0.0068   -0.1271   -2.1342 H         1 <0>         0.1810
     30 H5          0.0269   -2.6110   -2.1425 H         1 <0>         0.1722
     31 H6          0.0626   -3.5982    2.4597 H         1 <0>         0.4390
     32 H7          0.0462   -2.1121    3.2433 H         1 <0>         0.4202
     33 H8          1.7226   -4.6498    1.4661 H         1 <0>         0.1893
     34 H9         -1.5727   -4.7617   -1.2857 H         1 <0>         0.1887
     35 H10        -1.5429   -8.0673    0.0092 H         1 <0>         0.1333
     36 H11        -1.8058   -7.2746   -1.5627 H         1 <0>         0.1415
     37 H12        -1.2977   -9.8912   -1.9595 H         1 <0>         0.4232
     38 H13         2.4609   -9.3139   -2.2848 H         1 <0>         0.2088
     39 H14         4.1167  -12.5092   -3.6892 H         1 <0>         0.1197
     40 H15         3.5966  -11.1879   -5.7220 H         1 <0>         0.0707
     41 H16         3.9894   -9.6881   -4.8476 H         1 <0>         0.0661
     42 H17         5.2633  -10.8877   -5.1740 H         1 <0>         0.0899
     43 H18         4.5345  -11.3270   -1.5499 H         1 <0>         0.0700
     44 H19         5.8110  -10.9689   -2.7376 H         1 <0>         0.0921
     45 H20         4.5371   -9.7693   -2.4112 H         1 <0>         0.0704
     46 H21         0.0232   -0.1578    1.9782 H         1 <0>         0.4402
@<TRIPOS>BOND
     1    1    2 1
     2    1   26 1
     3    1   27 1
     4    1   28 1
     5    2    7 ar
     6    2    3 ar
     7    3    4 ar
     8    3   29 1
     9    4    5 ar
    10    4   30 1
    11    5    6 ar
    12    5    9 1
    13    6    7 ar
    14    6    8 1
    15    7   46 1
    16    8   31 1
    17    8   32 1
    18    9   13 2
    19    9   10 1
    20   10   11 2
    21   10   33 1
    22   11   12 1
    23   12   13 1
    24   12   14 1
    25   13   34 1
    26   14   15 1
    27   14   35 1
    28   14   36 1
    29   15   16 2
    30   15   17 am
    31   17   18 1
    32   17   37 1
    33   18   22 1
    34   18   19 2
    35   19   20 1
    36   19   38 1
    37   20   21 1
    38   20   23 1
    39   21   22 2
    40   23   24 1
    41   23   25 1
    42   23   39 1
    43   24   40 1
    44   24   41 1
    45   24   42 1
    46   25   43 1
    47   25   44 1
    48   25   45 1
@<TRIPOS>MOLECULE
ZINC63780800
   51    54     0     0     0
SMALL
USER_CHARGES

@<TRIPOS>ATOM
      1 C1         -0.0054    1.3330    0.0480 C.ar      1 <0>        -0.1462
      2 C2          1.1747    2.0893    0.0329 C.ar      1 <0>         0.0624
      3 C3          2.4013    1.5263    0.0087 C.ar      1 <0>        -0.2088
      4 C4          2.5426    0.1112   -0.0030 C.ar      1 <0>         0.3390
      5 N1          3.6023   -0.6601   -0.0266 N.pl3     1 <0>        -0.5592
      6 C5          3.1624   -2.0597   -0.0287 C.3       1 <0>         0.0681
      7 H1          3.5399   -2.5736    0.8553 H         1 <0>         0.2013
      8 C6          1.6508   -2.0193   -0.0024 C.2       1 <0>         0.0311
      9 C7          1.3111   -0.7102    0.0125 C.ar      1 <0>        -0.1482
     10 C8          0.0164   -0.0192    0.0391 C.ar      1 <0>        -0.0148
     11 C9          3.6433   -2.7536   -1.2771 C.2       1 <0>         0.5276
     12 O1          4.2954   -2.1429   -2.0973 O.2       1 <0>        -0.4934
     13 N2          3.3487   -4.0527   -1.4820 N.am      1 <0>        -0.7050
     14 C10         3.8162   -4.7271   -2.6956 C.3       1 <0>         0.1029
     15 C11         3.3491   -6.1840   -2.6815 C.3       1 <0>         0.1067
     16 N3          3.8166   -6.8585   -3.8951 N.am      1 <0>        -0.7012
     17 C12         3.5220   -8.1576   -4.1001 C.2       1 <0>         0.5191
     18 O2          2.8694   -8.7687   -3.2793 O.2       1 <0>        -0.5063
     19 C13         3.9985   -8.8451   -5.3371 C.2       1 <0>         0.5066
     20 O3          4.6512   -8.2339   -6.1580 O.2       1 <0>        -0.4939
     21 N4          3.7039  -10.1442   -5.5421 N.am      1 <0>        -0.6347
     22 C14         4.0663  -10.7623   -6.7431 C.ar      1 <0>         0.1331
     23 C15         3.2405  -11.7282   -7.3045 C.ar      1 <0>        -0.1279
     24 C16         3.5986  -12.3393   -8.4900 C.ar      1 <0>        -0.0931
     25 C17         4.7824  -11.9908   -9.1242 C.ar      1 <0>         0.0462
     26 C18         5.6098  -11.0230   -8.5662 C.ar      1 <0>         0.0694
     27 C19         5.2487  -10.4071   -7.3781 C.ar      1 <0>        -0.1125
     28 O4          6.7711  -10.6626   -9.1780 O.3       1 <0>        -0.3037
     29 C20         7.2807  -11.5591  -10.1711 C.3       1 <0>         0.0195
     30 C21         6.1213  -11.9678  -11.0899 C.3       1 <0>         0.0194
     31 O5          5.1203  -12.6073  -10.2907 O.3       1 <0>        -0.3044
     32 H2         -0.9569    1.8435    0.0719 H         1 <0>         0.1617
     33 H3          1.0994    3.1666    0.0406 H         1 <0>         0.1649
     34 H4          3.2802    2.1539   -0.0021 H         1 <0>         0.1646
     35 H5          0.9786   -2.8647    0.0028 H         1 <0>         0.2169
     36 H6         -0.9052   -0.5822    0.0514 H         1 <0>         0.1673
     37 H7          2.8271   -4.5411   -0.8260 H         1 <0>         0.4132
     38 H8          3.4079   -4.2231   -3.5716 H         1 <0>         0.0912
     39 H9          4.9051   -4.6950   -2.7326 H         1 <0>         0.0921
     40 H10         3.7574   -6.6880   -1.8055 H         1 <0>         0.0871
     41 H11         2.2602   -6.2161   -2.6445 H         1 <0>         0.0863
     42 H12         4.3381   -6.3701   -4.5511 H         1 <0>         0.4193
     43 H13         3.2405  -10.6505   -4.8566 H         1 <0>         0.4261
     44 H14         2.3183  -12.0015   -6.8135 H         1 <0>         0.1404
     45 H15         2.9558  -13.0906   -8.9244 H         1 <0>         0.1446
     46 H16         5.8891   -9.6534   -6.9443 H         1 <0>         0.1511
     47 H17         8.0539  -11.0597  -10.7550 H         1 <0>         0.1260
     48 H18         7.6970  -12.4436   -9.6890 H         1 <0>         0.0808
     49 H19         5.7007  -11.0826  -11.5670 H         1 <0>         0.0800
     50 H20         6.4818  -12.6600  -11.8508 H         1 <0>         0.1263
     51 H21         4.5234   -0.3563   -0.0407 H         1 <0>         0.4611
@<TRIPOS>BOND
     1    1   10 ar
     2    1    2 ar
     3    1   32 1
     4    2    3 ar
     5    2   33 1
     6    3    4 ar
     7    3   34 1
     8    4    9 ar
     9    4    5 2
    10    5    6 1
    11    5   51 1
    12    6    7 1
    13    6    8 1
    14    6   11 1
    15    8    9 2
    16    8   35 1
    17    9   10 ar
    18   10   36 1
    19   11   12 2
    20   11   13 am
    21   13   14 1
    22   13   37 1
    23   14   15 1
    24   14   38 1
    25   14   39 1
    26   15   16 1
    27   15   40 1
    28   15   41 1
    29   16   17 am
    30   16   42 1
    31   17   18 2
    32   17   19 1
    33   19   20 2
    34   19   21 am
    35   21   22 1
    36   21   43 1
    37   22   27 ar
    38   22   23 ar
    39   23   24 ar
    40   23   44 1
    41   24   25 ar
    42   24   45 1
    43   25   31 1
    44   25   26 ar
    45   26   27 ar
    46   26   28 1
    47   27   46 1
    48   28   29 1
    49   29   30 1
    50   29   47 1
    51   29   48 1
    52   30   31 1
    53   30   49 1
    54   30   50 1
@<TRIPOS>MOLECULE
ZINC65897844
   50    51     0     0     0
SMALL
USER_CHARGES

@<TRIPOS>ATOM
      1 C1         -0.0187    1.5258    0.0104 C.3       1 <0>        -0.1730
      2 C2          0.0021   -0.0041    0.0020 C.3       1 <0>         0.1208
      3 N1          0.6878   -0.4765   -1.2033 N.pl3     1 <0>        -0.6078
      4 C3          2.1353   -0.7012   -1.1821 C.3       1 <0>         0.1198
      5 C4          2.4170   -2.1231   -0.7698 C.2       1 <0>         0.4857
      6 O1          1.4989   -2.8748   -0.5184 O.2       1 <0>        -0.5029
      7 N2          3.6890   -2.5594   -0.6803 N.am      1 <0>        -0.5373
      8 N3          3.9508   -3.8813   -0.2970 N.am      1 <0>        -0.5280
      9 C5          5.2229   -4.3176   -0.2076 C.2       1 <0>         0.7147
     10 O2          5.4501   -5.4648    0.1250 O.2       1 <0>        -0.5627
     11 N4          6.2430   -3.4823   -0.4869 N.am      1 <0>        -0.7484
     12 C6          7.6257   -3.9566   -0.3897 C.3       1 <0>         0.1390
     13 C7          8.5818   -2.8197   -0.7563 C.3       1 <0>        -0.1551
     14 C8         10.0258   -3.3150   -0.6548 C.3       1 <0>         0.0953
     15 N5         10.9413   -2.2265   -1.0058 N.pl3     1 <0>        -0.4088
     16 C9         11.4111   -1.9321   -2.2573 C.2       1 <0>         0.0257
     17 C10        12.2188   -0.8622   -2.1286 C.2       1 <0>         0.0048
     18 N6         12.2415   -0.5129   -0.8338 N.pl3     1 <0>        -0.4760
     19 C11        11.4746   -1.3226   -0.1560 C.cat     1 <0>         0.2889
     20 C12        -0.0385   -0.7128   -2.3727 C.ar      1 <0>         0.2152
     21 C13        -1.4102   -0.4947   -2.3963 C.ar      1 <0>        -0.1862
     22 C14        -2.1252   -0.7289   -3.5544 C.ar      1 <0>        -0.0717
     23 C15        -1.4773   -1.1803   -4.6896 C.ar      1 <0>        -0.1713
     24 C16        -0.1119   -1.3983   -4.6696 C.ar      1 <0>        -0.0740
     25 C17         0.6101   -1.1608   -3.5165 C.ar      1 <0>        -0.1960
     26 H1          1.0039    1.9031    0.0027 H         1 <0>         0.0548
     27 H2         -0.5459    1.8868   -0.8726 H         1 <0>         0.0620
     28 H3         -0.5289    1.8773    0.9072 H         1 <0>         0.0681
     29 H4          0.5293   -0.3651    0.8851 H         1 <0>         0.0726
     30 H5         -1.0205   -0.3814    0.0098 H         1 <0>         0.0816
     31 H6          2.5453   -0.5232   -2.1762 H         1 <0>         0.1118
     32 H7          2.5986   -0.0180   -0.4703 H         1 <0>         0.1113
     33 H8          4.4232   -1.9582   -0.8814 H         1 <0>         0.4147
     34 H9          3.2166   -4.4825   -0.0960 H         1 <0>         0.4477
     35 H10         6.0617   -2.5671   -0.7523 H         1 <0>         0.3924
     36 H11         7.8262   -4.2853    0.6300 H         1 <0>         0.0809
     37 H12         7.7728   -4.7906   -1.0759 H         1 <0>         0.0811
     38 H13         8.3813   -2.4909   -1.7760 H         1 <0>         0.0895
     39 H14         8.4347   -1.9857   -0.0701 H         1 <0>         0.0873
     40 H15        10.2263   -3.6438    0.3649 H         1 <0>         0.1281
     41 H16        10.1730   -4.1491   -1.3410 H         1 <0>         0.1309
     42 H17        11.1790   -2.4571   -3.1721 H         1 <0>         0.2236
     43 H18        12.7544   -0.3715   -2.9278 H         1 <0>         0.2243
     44 H19        11.2979   -1.2786    0.9085 H         1 <0>         0.2603
     45 H20        -1.9170   -0.1429   -1.5098 H         1 <0>         0.1238
     46 H21        -3.1917   -0.5596   -3.5734 H         1 <0>         0.1235
     47 H22        -2.0390   -1.3633   -5.5937 H         1 <0>         0.1202
     48 H23         0.3911   -1.7509   -5.5579 H         1 <0>         0.1202
     49 H24         1.6771   -1.3270   -3.5029 H         1 <0>         0.1125
     50 H25        12.7455    0.2271   -0.4606 H         1 <0>         0.4660
@<TRIPOS>BOND
     1    1    2 1
     2    1   26 1
     3    1   27 1
     4    1   28 1
     5    2    3 1
     6    2   29 1
     7    2   30 1
     8    3    4 1
     9    3   20 1
    10    4    5 1
    11    4   31 1
    12    4   32 1
    13    5    6 2
    14    5    7 am
    15    7    8 1
    16    7   33 1
    17    8    9 am
    18    8   34 1
    19    9   10 2
    20    9   11 am
    21   11   12 1
    22   11   35 1
    23   12   13 1
    24   12   36 1
    25   12   37 1
    26   13   14 1
    27   13   38 1
    28   13   39 1
    29   14   15 1
    30   14   40 1
    31   14   41 1
    32   15   19 1
    33   15   16 1
    34   16   17 2
    35   16   42 1
    36   17   18 1
    37   17   43 1
    38   18   19 2
    39   18   50 1
    40   19   44 1
    41   20   25 ar
    42   20   21 ar
    43   21   22 ar
    44   21   45 1
    45   22   23 ar
    46   22   46 1
    47   23   24 ar
    48   23   47 1
    49   24   25 ar
    50   24   48 1
    51   25   49 1
@<TRIPOS>MOLECULE
ZINC67634566
   58    59     0     0     0
SMALL
USER_CHARGES

@<TRIPOS>ATOM
      1 C1         -2.1580    1.5667    1.1243 C.3       1 <0>        -0.1546
      2 C2         -2.2217    0.0382    1.1505 C.3       1 <0>        -0.1045
      3 C3         -1.6741   -0.4743    2.4856 C.3       1 <0>        -0.1421
      4 C4         -1.6666   -2.0045    2.4740 C.3       1 <0>        -0.0114
      5 N1         -0.8166   -2.4849    1.3780 N.4       1 <0>        -0.3779
      6 C5         -1.3757   -2.0574    0.0899 C.3       1 <0>        -0.0066
      7 C6         -1.3720   -0.5293    0.0098 C.3       1 <0>        -0.1436
      8 C7         -0.7502   -3.9518    1.4187 C.3       1 <0>        -0.0431
      9 C8         -0.0232   -4.3944    2.6901 C.3       1 <0>         0.0715
     10 H1         -0.5625   -4.0274    3.5634 H         1 <0>         0.1303
     11 C9          0.0410   -5.9224    2.7352 C.3       1 <0>         0.1129
     12 N2          0.6296   -6.3490    4.0071 N.am      1 <0>        -0.7457
     13 C10         0.7865   -7.6615    4.2704 C.2       1 <0>         0.7089
     14 O1          0.4395   -8.4914    3.4524 O.2       1 <0>        -0.5822
     15 N3          1.3281   -8.0540    5.4405 N.am      1 <0>        -0.7360
     16 C11         1.4986   -9.4806    5.7267 C.3       1 <0>         0.1465
     17 H2          1.7437  -10.0097    4.8058 H         1 <0>         0.0952
     18 C12         0.2002  -10.0435    6.3092 C.3       1 <0>        -0.1277
     19 C13         0.3667  -11.5409    6.5780 C.3       1 <0>        -0.1345
     20 C14         1.4867  -11.7504    7.6019 C.3       1 <0>         0.1153
     21 N4          2.7032  -11.0859    7.1147 N.pl3     1 <0>        -0.9961
     22 C15         2.6321   -9.6668    6.7404 C.3       1 <0>         0.1152
     23 S1          4.1281  -11.9204    6.9898 S.o2      1 <0>         2.6098
     24 O2          5.1400  -10.9296    7.1068 O.2       1 <0>        -0.9523
     25 O3          4.0221  -12.9643    7.9480 O.2       1 <0>        -0.9465
     26 C16         4.1192  -12.6093    5.3117 C.3       1 <0>        -0.6742
     27 O4          1.3028   -3.8617    2.6905 O.3       1 <0>        -0.5506
     28 H3         -2.5414    1.9300    0.1709 H         1 <0>         0.0677
     29 H4         -2.7630    1.9695    1.9365 H         1 <0>         0.0678
     30 H5         -1.1241    1.8894    1.2469 H         1 <0>         0.0623
     31 H6         -3.2555   -0.2856    1.0308 H         1 <0>         0.0886
     32 H7         -0.6579   -0.1065    2.6276 H         1 <0>         0.0894
     33 H8         -2.3072   -0.1196    3.2990 H         1 <0>         0.1127
     34 H9         -1.2775   -2.3727    3.4232 H         1 <0>         0.1296
     35 H10        -2.6832   -2.3712    2.3322 H         1 <0>         0.1293
     36 H11        -0.7718   -2.4648   -0.7210 H         1 <0>         0.1307
     37 H12        -2.3985   -2.4230   -0.0010 H         1 <0>         0.1294
     38 H13        -1.7891   -0.2139   -0.9465 H         1 <0>         0.1134
     39 H14        -0.3495   -0.1626    0.1004 H         1 <0>         0.0888
     40 H15        -1.7603   -4.3614    1.4164 H         1 <0>         0.1444
     41 H16        -0.2088   -4.3154    0.5453 H         1 <0>         0.1396
     42 H17        -0.9655   -6.3311    2.6454 H         1 <0>         0.0862
     43 H18         0.6552   -6.2847    1.9109 H         1 <0>         0.0816
     44 H19         0.9065   -5.6869    4.6597 H         1 <0>         0.4031
     45 H20         1.6049   -7.3919    6.0931 H         1 <0>         0.4000
     46 H21        -0.0314   -9.5306    7.2427 H         1 <0>         0.0686
     47 H22        -0.6127   -9.8902    5.5995 H         1 <0>         0.0716
     48 H23        -0.5659  -11.9459    6.9710 H         1 <0>         0.0844
     49 H24         0.6227  -12.0510    5.6493 H         1 <0>         0.0708
     50 H25         1.1927  -11.3187    8.5586 H         1 <0>         0.0791
     51 H26         1.6764  -12.8169    7.7229 H         1 <0>         0.0978
     52 H27         3.5769   -9.3587    6.2927 H         1 <0>         0.0984
     53 H28         2.4319   -9.0651    7.6269 H         1 <0>         0.0816
     54 H29         4.0622  -11.7978    4.5861 H         1 <0>         0.1258
     55 H30         5.0338  -13.1793    5.1481 H         1 <0>         0.1314
     56 H31         3.2564  -13.2646    5.1925 H         1 <0>         0.1292
     57 H32         1.8415   -4.1470    1.9398 H         1 <0>         0.3939
     58 H33         0.1123   -2.1052    1.4829 H         1 <0>         0.4269
@<TRIPOS>BOND
     1    1    2 1
     2    1   28 1
     3    1   29 1
     4    1   30 1
     5    2    7 1
     6    2    3 1
     7    2   31 1
     8    3    4 1
     9    3   32 1
    10    3   33 1
    11    4    5 1
    12    4   34 1
    13    4   35 1
    14    5    6 1
    15    5    8 1
    16    5   58 1
    17    6    7 1
    18    6   36 1
    19    6   37 1
    20    7   38 1
    21    7   39 1
    22    8    9 1
    23    8   40 1
    24    8   41 1
    25    9   10 1
    26    9   11 1
    27    9   27 1
    28   11   12 1
    29   11   42 1
    30   11   43 1
    31   12   13 am
    32   12   44 1
    33   13   14 2
    34   13   15 am
    35   15   16 1
    36   15   45 1
    37   16   17 1
    38   16   22 1
    39   16   18 1
    40   18   19 1
    41   18   46 1
    42   18   47 1
    43   19   20 1
    44   19   48 1
    45   19   49 1
    46   20   21 1
    47   20   50 1
    48   20   51 1
    49   21   22 1
    50   21   23 1
    51   22   52 1
    52   22   53 1
    53   23   24 2
    54   23   25 2
    55   23   26 1
    56   26   54 1
    57   26   55 1
    58   26   56 1
    59   27   57 1
@<TRIPOS>MOLECULE
ZINC36828636
   43    43     0     0     0
SMALL
USER_CHARGES

@<TRIPOS>ATOM
      1 C1         -0.0187    1.5258    0.0104 C.3       1 <0>        -0.1823
      2 C2          0.0021   -0.0041    0.0020 C.3       1 <0>         0.0027
      3 H1         -1.0205   -0.3814    0.0098 H         1 <0>         0.1733
      4 C3          0.7309   -0.5033    1.2229 C.2       1 <0>         0.5151
      5 O1          1.7249   -1.1862    1.0985 O.2       1 <0>        -0.4511
      6 N1          0.2778   -0.1906    2.4531 N.am      1 <0>        -0.6752
      7 C4          0.9297   -0.6370    3.5450 C.2       1 <0>         0.6895
      8 O2          1.9261   -1.3216    3.4203 O.2       1 <0>        -0.5154
      9 N2          0.4765   -0.3243    4.7752 N.am      1 <0>        -0.7297
     10 C5          1.1851   -0.8096    5.9620 C.3       1 <0>         0.0967
     11 N3          0.6897   -0.4778   -1.2066 N.4       1 <0>        -0.4946
     12 C6         -0.0856   -0.0931   -2.3936 C.3       1 <0>         0.0226
     13 C7         -1.4322   -0.8202   -2.3807 C.3       1 <0>        -0.1585
     14 C8         -2.2518   -0.3903   -3.6015 C.3       1 <0>         0.1213
     15 N4         -1.4528   -0.6215   -4.8126 N.pl3     1 <0>        -1.0091
     16 C9         -0.1048   -0.0423   -4.8909 C.3       1 <0>         0.1212
     17 C10         0.6907   -0.4760   -3.6557 C.3       1 <0>        -0.1547
     18 S1         -2.0599   -1.5182   -6.0655 S.o2      1 <0>         2.6068
     19 O3         -0.9152   -2.0444   -6.7228 O.2       1 <0>        -0.9453
     20 O4         -3.0117   -2.3847   -5.4634 O.2       1 <0>        -0.9465
     21 C11        -2.8978   -0.3168   -7.1356 C.3       1 <0>        -0.6690
     22 H2          1.0039    1.9031    0.0027 H         1 <0>         0.0940
     23 H3         -0.5459    1.8868   -0.8726 H         1 <0>         0.1022
     24 H4         -0.5289    1.8773    0.9072 H         1 <0>         0.1127
     25 H5         -0.5174    0.3558    2.5526 H         1 <0>         0.4177
     26 H6         -0.3187    0.2221    4.8747 H         1 <0>         0.4046
     27 H7          1.1999   -1.8995    5.9560 H         1 <0>         0.0684
     28 H8          2.2077   -0.4323    5.9543 H         1 <0>         0.0683
     29 H9          0.6749   -0.4581    6.8588 H         1 <0>         0.0893
     30 H10         1.6080   -0.0627   -1.2556 H         1 <0>         0.4353
     31 H11        -0.2544    0.9837   -2.3838 H         1 <0>         0.1490
     32 H12        -1.2648   -1.8967   -2.4156 H         1 <0>         0.0994
     33 H13        -1.9746   -0.5652   -1.4702 H         1 <0>         0.1002
     34 H14        -3.1688   -0.9774   -3.6511 H         1 <0>         0.1168
     35 H15        -2.4973    0.6687   -3.5223 H         1 <0>         0.0852
     36 H16         0.3948   -0.3998   -5.7913 H         1 <0>         0.1176
     37 H17        -0.1753    1.0451   -4.9169 H         1 <0>         0.0855
     38 H18         1.6593    0.0239   -3.6527 H         1 <0>         0.1056
     39 H19         0.8381   -1.5558   -3.6786 H         1 <0>         0.0985
     40 H20        -2.1782    0.4249   -7.4822 H         1 <0>         0.1303
     41 H21        -3.3292   -0.8329   -7.9932 H         1 <0>         0.1353
     42 H22        -3.6894    0.1796   -6.5744 H         1 <0>         0.1299
     43 H23         0.7761   -1.4825   -1.1724 H         1 <0>         0.4363
@<TRIPOS>BOND
     1    1    2 1
     2    1   22 1
     3    1   23 1
     4    1   24 1
     5    2    3 1
     6    2    4 1
     7    2   11 1
     8    4    5 2
     9    4    6 am
    10    6    7 am
    11    6   25 1
    12    7    8 2
    13    7    9 am
    14    9   10 1
    15    9   26 1
    16   10   27 1
    17   10   28 1
    18   10   29 1
    19   11   12 1
    20   11   30 1
    21   11   43 1
    22   12   17 1
    23   12   13 1
    24   12   31 1
    25   13   14 1
    26   13   32 1
    27   13   33 1
    28   14   15 1
    29   14   34 1
    30   14   35 1
    31   15   16 1
    32   15   18 1
    33   16   17 1
    34   16   36 1
    35   16   37 1
    36   17   38 1
    37   17   39 1
    38   18   19 2
    39   18   20 2
    40   18   21 1
    41   21   40 1
    42   21   41 1
    43   21   42 1
@<TRIPOS>MOLECULE
ZINC39683928
   62    64     0     0     0
SMALL
USER_CHARGES

@<TRIPOS>ATOM
      1 C1         -2.7192    0.7181   -2.7090 C.3       1 <0>        -0.1388
      2 C2         -2.0202   -0.4699   -2.0448 C.3       1 <0>        -0.1219
      3 S1         -0.5202   -0.8866   -2.9759 S.3       1 <0>        -0.0164
      4 C3          0.1608   -2.2537   -2.0972 C.ar      1 <0>         0.1694
      5 C4          1.3565   -2.8457   -2.5420 C.ar      1 <0>        -0.1763
      6 C5          1.8778   -3.9298   -1.8272 C.ar      1 <0>        -0.0280
      7 C6          1.1910   -4.3726   -0.7105 C.ar      1 <0>        -0.1891
      8 C7          0.0201   -3.7387   -0.3344 C.ar      1 <0>         0.1488
      9 N1         -0.4531   -2.7152   -1.0178 N.ar      1 <0>        -0.4930
     10 C8          2.0474   -2.3339   -3.7392 C.2       1 <0>         0.5988
     11 O1          2.0425   -1.1422   -3.9812 O.2       1 <0>        -0.5031
     12 N2          2.6845   -3.1868   -4.5657 N.am      1 <0>        -0.6133
     13 C9          2.7120   -4.6669   -4.4983 C.3       1 <0>         0.1101
     14 C10         2.6260   -5.1264   -5.9710 C.3       1 <0>        -0.1134
     15 H1          3.2514   -6.0046   -6.1317 H         1 <0>         0.1201
     16 C11         3.1567   -3.9347   -6.7855 C.3       1 <0>        -0.0722
     17 C12         3.5109   -2.8564   -5.7514 C.3       1 <0>         0.1087
     18 C13         2.0760   -3.4168   -7.7297 C.3       1 <0>        -0.1489
     19 C14         2.6452   -2.2694   -8.5689 C.3       1 <0>        -0.0091
     20 N3          3.8032   -2.7480   -9.3337 N.4       1 <0>        -0.5048
     21 C15         4.8740   -3.1579   -8.4173 C.3       1 <0>        -0.0098
     22 C16         4.3990   -4.3427   -7.5714 C.3       1 <0>        -0.1348
     23 C17         1.1971   -5.4257   -6.3448 C.2       1 <0>         0.5189
     24 O2          0.2913   -4.8220   -5.8100 O.2       1 <0>        -0.5126
     25 N4          0.9258   -6.3641   -7.2733 N.am      1 <0>        -0.7119
     26 C18        -0.4633   -6.6550   -7.6367 C.3       1 <0>         0.1228
     27 H2         -1.0974   -6.5575   -6.7555 H         1 <0>         0.1186
     28 C19        -0.9270   -5.6685   -8.7103 C.3       1 <0>        -0.1599
     29 C20        -0.5589   -8.0608   -8.1712 C.2       1 <0>         0.5085
     30 O3          0.4354   -8.7516   -8.2418 O.2       1 <0>        -0.5350
     31 N5         -1.7493   -8.5502   -8.5709 N.am      1 <0>        -0.7251
     32 C21        -1.8422   -9.9168   -9.0906 C.3       1 <0>         0.0833
     33 H3         -2.0472    1.5762   -2.7183 H         1 <0>         0.0658
     34 H4         -2.9878    0.4559   -3.7323 H         1 <0>         0.0630
     35 H5         -3.6205    0.9685   -2.1495 H         1 <0>         0.0783
     36 H6         -1.7516   -0.2077   -1.0215 H         1 <0>         0.0926
     37 H7         -2.6923   -1.3280   -2.0355 H         1 <0>         0.0899
     38 H8          2.7937   -4.4094   -2.1396 H         1 <0>         0.1415
     39 H9          1.5662   -5.2072   -0.1367 H         1 <0>         0.1468
     40 H10        -0.5143   -4.0864    0.5373 H         1 <0>         0.1675
     41 H11         3.6431   -5.0096   -4.0470 H         1 <0>         0.0924
     42 H12         1.8562   -5.0376   -3.9340 H         1 <0>         0.0994
     43 H13         3.2536   -1.8675   -6.1308 H         1 <0>         0.0912
     44 H14         4.5708   -2.9052   -5.5019 H         1 <0>         0.0865
     45 H15         1.7511   -4.2226   -8.3878 H         1 <0>         0.0949
     46 H16         1.2273   -3.0563   -7.1485 H         1 <0>         0.1258
     47 H17         1.8803   -1.9080   -9.2562 H         1 <0>         0.1385
     48 H18         2.9550   -1.4573   -7.9111 H         1 <0>         0.1356
     49 H19         3.5277   -3.5357   -9.9008 H         1 <0>         0.4275
     50 H20         5.7519   -3.4515   -8.9929 H         1 <0>         0.1403
     51 H21         5.1310   -2.3247   -7.7633 H         1 <0>         0.1334
     52 H22         5.1882   -4.6348   -6.8787 H         1 <0>         0.1227
     53 H23         4.1576   -5.1819   -8.2237 H         1 <0>         0.0987
     54 H24         1.6503   -6.8469   -7.7010 H         1 <0>         0.4094
     55 H25        -0.2929   -5.7660   -9.5915 H         1 <0>         0.0628
     56 H26        -1.9605   -5.8849   -8.9806 H         1 <0>         0.0776
     57 H27        -0.8578   -4.6517   -8.3237 H         1 <0>         0.0742
     58 H28        -2.5446   -7.9977   -8.5145 H         1 <0>         0.4063
     59 H29        -1.2081  -10.0143   -9.9718 H         1 <0>         0.0643
     60 H30        -1.5119  -10.6196   -8.3257 H         1 <0>         0.0650
     61 H31        -2.8758  -10.1333   -9.3609 H         1 <0>         0.0829
     62 H32         4.1390   -2.0077   -9.9315 H         1 <0>         0.4342
@<TRIPOS>BOND
     1    1    2 1
     2    1   33 1
     3    1   34 1
     4    1   35 1
     5    2    3 1
     6    2   36 1
     7    2   37 1
     8    3    4 1
     9    4    9 ar
    10    4    5 ar
    11    5    6 ar
    12    5   10 1
    13    6    7 ar
    14    6   38 1
    15    7    8 ar
    16    7   39 1
    17    8    9 ar
    18    8   40 1
    19   10   11 2
    20   10   12 am
    21   12   17 1
    22   12   13 1
    23   13   14 1
    24   13   41 1
    25   13   42 1
    26   14   15 1
    27   14   16 1
    28   14   23 1
    29   16   22 1
    30   16   17 1
    31   16   18 1
    32   17   43 1
    33   17   44 1
    34   18   19 1
    35   18   45 1
    36   18   46 1
    37   19   20 1
    38   19   47 1
    39   19   48 1
    40   20   21 1
    41   20   49 1
    42   20   62 1
    43   21   22 1
    44   21   50 1
    45   21   51 1
    46   22   52 1
    47   22   53 1
    48   23   24 2
    49   23   25 am
    50   25   26 1
    51   25   54 1
    52   26   27 1
    53   26   28 1
    54   26   29 1
    55   28   55 1
    56   28   56 1
    57   28   57 1
    58   29   30 2
    59   29   31 am
    60   31   32 1
    61   31   58 1
    62   32   59 1
    63   32   60 1
    64   32   61 1
@<TRIPOS>MOLECULE
ZINC51827519
   46    46     0     0     0
SMALL
USER_CHARGES

@<TRIPOS>ATOM
      1 C1         -0.0187    1.5258    0.0104 C.3       1 <0>        -0.1533
      2 C2          0.0021   -0.0041    0.0020 C.3       1 <0>         0.0789
      3 O1          0.6709   -0.4649   -1.1737 O.3       1 <0>        -0.3639
      4 C3          0.7758   -1.7975   -1.3346 C.2       1 <0>         0.6511
      5 O2          0.3120   -2.5487   -0.4996 O.2       1 <0>        -0.5636
      6 N1          1.3951   -2.2983   -2.4219 N.am      1 <0>        -0.6004
      7 C4          1.9662   -1.4028   -3.4370 C.3       1 <0>         0.1153
      8 C5          1.4042   -1.7901   -4.8085 C.3       1 <0>        -0.1444
      9 C6          1.6673   -3.2763   -5.0619 C.3       1 <0>         0.1414
     10 C7          0.9555   -4.1113   -3.9949 C.3       1 <0>        -0.1445
     11 C8          1.5173   -3.7502   -2.6114 C.3       1 <0>         0.1290
     12 N2          1.1605   -3.6427   -6.3867 N.am      1 <0>        -0.6992
     13 C9          1.6873   -4.6960   -7.0421 C.2       1 <0>         0.5018
     14 O3          2.5809   -5.3405   -6.5351 O.2       1 <0>        -0.5193
     15 C10         1.1660   -5.0729   -8.4049 C.3       1 <0>        -0.0325
     16 N3          1.8983   -6.2452   -8.9023 N.4       1 <0>        -0.3584
     17 C11         1.6123   -7.4020   -8.0432 C.3       1 <0>        -0.0701
     18 C12         1.4746   -6.5400  -10.2776 C.3       1 <0>        -0.0332
     19 C13         2.3116   -7.6643  -10.8311 C.2       1 <0>         0.5078
     20 O4          3.1761   -8.1702  -10.1472 O.2       1 <0>        -0.5233
     21 N4          2.0996   -8.1076  -12.0861 N.am      1 <0>        -0.8246
     22 H1          1.0039    1.9031    0.0027 H         1 <0>         0.0678
     23 H2         -0.5459    1.8868   -0.8726 H         1 <0>         0.0664
     24 H3         -0.5289    1.8773    0.9072 H         1 <0>         0.0854
     25 H4          0.5293   -0.3651    0.8851 H         1 <0>         0.0706
     26 H5         -1.0205   -0.3814    0.0098 H         1 <0>         0.0694
     27 H6          1.6952   -0.3719   -3.2090 H         1 <0>         0.1048
     28 H7          3.0514   -1.5043   -3.4449 H         1 <0>         0.0785
     29 H8          0.3307   -1.6022   -4.8281 H         1 <0>         0.0799
     30 H9          1.8920   -1.1972   -5.5822 H         1 <0>         0.0899
     31 H10         2.7394   -3.4680   -5.0176 H         1 <0>         0.1028
     32 H11        -0.1137   -3.9014   -4.0222 H         1 <0>         0.0760
     33 H12         1.1240   -5.1704   -4.1896 H         1 <0>         0.0848
     34 H13         2.5667   -4.0392   -2.5533 H         1 <0>         0.0796
     35 H14         0.9501   -4.2687   -1.8385 H         1 <0>         0.1057
     36 H15         0.4458   -3.1273   -6.7922 H         1 <0>         0.4110
     37 H16         0.1045   -5.3104   -8.3350 H         1 <0>         0.1626
     38 H17         1.3071   -4.2382   -9.0915 H         1 <0>         0.1623
     39 H18         1.9267   -7.1833   -7.0227 H         1 <0>         0.1432
     40 H19         0.5422   -7.6092   -8.0572 H         1 <0>         0.1172
     41 H20         2.1557   -8.2718   -8.4123 H         1 <0>         0.1423
     42 H21         0.4249   -6.8336  -10.2794 H         1 <0>         0.1637
     43 H22         1.6044   -5.6519  -10.8961 H         1 <0>         0.1633
     44 H23         1.4083   -7.7030  -12.6331 H         1 <0>         0.4138
     45 H24         2.6384   -8.8313  -12.4423 H         1 <0>         0.4252
     46 H25         2.8888   -6.0534   -8.8893 H         1 <0>         0.4391
@<TRIPOS>BOND
     1    1    2 1
     2    1   22 1
     3    1   23 1
     4    1   24 1
     5    2    3 1
     6    2   25 1
     7    2   26 1
     8    3    4 1
     9    4    5 2
    10    4    6 am
    11    6   11 1
    12    6    7 1
    13    7    8 1
    14    7   27 1
    15    7   28 1
    16    8    9 1
    17    8   29 1
    18    8   30 1
    19    9   10 1
    20    9   12 1
    21    9   31 1
    22   10   11 1
    23   10   32 1
    24   10   33 1
    25   11   34 1
    26   11   35 1
    27   12   13 am
    28   12   36 1
    29   13   14 2
    30   13   15 1
    31   15   16 1
    32   15   37 1
    33   15   38 1
    34   16   17 1
    35   16   18 1
    36   16   46 1
    37   17   39 1
    38   17   40 1
    39   17   41 1
    40   18   19 1
    41   18   42 1
    42   18   43 1
    43   19   20 2
    44   19   21 am
    45   21   44 1
    46   21   45 1
@<TRIPOS>MOLECULE
ZINC62965834
   41    42     0     0     0
SMALL
USER_CHARGES

@<TRIPOS>ATOM
      1 C1         -0.0178    1.4648    0.0101 C.3       1 <0>        -0.0473
      2 N1          0.0021   -0.0041    0.0020 N.4       1 <0>        -0.3816
      3 C2          0.7126   -0.4907    1.1921 C.3       1 <0>        -0.0505
      4 C3         -1.3761   -0.5125    0.0124 C.3       1 <0>         0.0126
      5 H1         -1.9084   -0.1617    0.8965 H         1 <0>         0.1520
      6 C4         -2.1249   -0.0954   -1.2808 C.3       1 <0>        -0.1445
      7 C5         -3.1880   -1.2158   -1.3998 C.3       1 <0>         0.1388
      8 N2         -2.5004   -2.4382   -0.9457 N.pl3     1 <0>        -0.6648
      9 C6         -1.3898   -2.0541   -0.0572 C.3       1 <0>         0.1342
     10 C7         -2.8458   -3.7409   -1.2951 C.ar      1 <0>         0.2722
     11 C8         -2.2809   -4.3357   -2.4153 C.ar      1 <0>        -0.1191
     12 C9         -2.6254   -5.6274   -2.7602 C.ar      1 <0>        -0.0289
     13 C10        -3.5338   -6.3383   -1.9937 C.ar      1 <0>        -0.0407
     14 C11        -4.1038   -5.7626   -0.8778 C.ar      1 <0>        -0.0254
     15 C12        -3.7610   -4.4600   -0.5144 C.ar      1 <0>        -0.0571
     16 C13        -4.3644   -3.8396    0.6841 C.2       1 <0>         0.4159
     17 N3         -4.0461   -2.6220    1.0168 N.2       1 <0>        -0.4001
     18 O1         -4.6241   -2.0277    2.1648 O.3       1 <0>        -0.4207
     19 N4         -5.2683   -4.5536    1.4527 N.pl3     1 <0>        -0.8634
     20 N5         -3.8950   -7.7223   -2.3745 N.pl3     1 <0>         0.0269
     21 O2         -3.3973   -8.2296   -3.3525 O.2       1 <0>        -0.1391
     22 O3         -4.6877   -8.3454   -1.7074 O.3       1 <0>        -0.1455
     23 H2          1.0047    1.8421    0.0024 H         1 <0>         0.1264
     24 H3         -0.5450    1.8259   -0.8730 H         1 <0>         0.1239
     25 H4         -0.5280    1.8163    0.9069 H         1 <0>         0.1232
     26 H5          0.7273   -1.5806    1.1861 H         1 <0>         0.1219
     27 H6          1.7352   -0.1134    1.1844 H         1 <0>         0.1271
     28 H7          0.2024   -0.1392    2.0889 H         1 <0>         0.1240
     29 H8         -2.5969    0.8799   -1.1617 H         1 <0>         0.1088
     30 H9         -1.4539   -0.1006   -2.1398 H         1 <0>         0.0953
     31 H10        -4.0410   -0.9992   -0.7567 H         1 <0>         0.0768
     32 H11        -3.5104   -1.3244   -2.4354 H         1 <0>         0.0798
     33 H12        -0.4464   -2.4152   -0.4666 H         1 <0>         0.0634
     34 H13        -1.5470   -2.4688    0.9385 H         1 <0>         0.0846
     35 H14        -1.5718   -3.7873   -3.0177 H         1 <0>         0.1564
     36 H15        -2.1841   -6.0860   -3.6328 H         1 <0>         0.1661
     37 H16        -4.8119   -6.3209   -0.2835 H         1 <0>         0.1602
     38 H17        -4.3270   -1.1226    2.3309 H         1 <0>         0.3958
     39 H18        -5.5055   -5.4609    1.2048 H         1 <0>         0.4007
     40 H19        -5.6642   -4.1465    2.2391 H         1 <0>         0.4163
     41 H20         0.4744   -0.3295   -0.8281 H         1 <0>         0.4253
@<TRIPOS>BOND
     1    1    2 1
     2    1   23 1
     3    1   24 1
     4    1   25 1
     5    2    3 1
     6    2    4 1
     7    2   41 1
     8    3   26 1
     9    3   27 1
    10    3   28 1
    11    4    5 1
    12    4    9 1
    13    4    6 1
    14    6    7 1
    15    6   29 1
    16    6   30 1
    17    7    8 1
    18    7   31 1
    19    7   32 1
    20    8    9 1
    21    8   10 1
    22    9   33 1
    23    9   34 1
    24   10   15 ar
    25   10   11 ar
    26   11   12 ar
    27   11   35 1
    28   12   13 ar
    29   12   36 1
    30   13   14 ar
    31   13   20 1
    32   14   15 ar
    33   14   37 1
    34   15   16 1
    35   16   17 2
    36   16   19 1
    37   17   18 1
    38   18   38 1
    39   19   39 1
    40   19   40 1
    41   20   21 2
    42   20   22 1
@<TRIPOS>MOLECULE
ZINC67270567
   51    53     0     0     0
SMALL
USER_CHARGES

@<TRIPOS>ATOM
      1 C1         -0.1745   -3.2607    1.7754 C.3       1 <0>        -0.1151
      2 C2          0.0124   -2.1046    0.8269 C.cat     1 <0>         0.3126
      3 N1          0.1954   -2.1999   -0.4617 N.pl3     1 <0>        -0.4775
      4 C3          0.3229   -0.9705   -0.9825 C.2       1 <0>         0.0042
      5 C4          0.2148   -0.0795    0.0215 C.2       1 <0>         0.0257
      6 N2          0.0125   -0.7982    1.1688 N.pl3     1 <0>        -0.4041
      7 C5         -0.1674   -0.2522    2.5163 C.3       1 <0>         0.0968
      8 C6         -1.6568   -0.2375    2.8660 C.3       1 <0>        -0.1229
      9 H1         -2.0690   -1.2390    2.7422 H         1 <0>         0.0919
     10 C7         -2.3891    0.7337    1.9378 C.3       1 <0>        -0.1598
     11 C8         -1.8355    0.2117    4.3176 C.3       1 <0>         0.1253
     12 N3         -3.2490    0.1117    4.6893 N.am      1 <0>        -0.7358
     13 C9         -3.6456    0.4574    5.9301 C.2       1 <0>         0.5229
     14 O1         -2.8323    0.8512    6.7390 O.2       1 <0>        -0.5218
     15 C10        -5.0997    0.3545    6.3125 C.3       1 <0>        -0.1033
     16 C11        -5.9330    1.2510    5.3943 C.3       1 <0>        -0.1178
     17 C12        -7.4111    1.1362    5.7756 C.3       1 <0>        -0.1110
     18 C13        -7.5981    1.5557    7.2295 C.3       1 <0>         0.1207
     19 C14        -6.7536    0.6871    8.1553 C.3       1 <0>        -0.1138
     20 C15        -5.2782    0.8038    7.7642 C.3       1 <0>        -0.1095
     21 C16        -7.2459    3.0146    7.4075 C.2       1 <0>         0.5324
     22 O2         -6.1712    3.5396    7.2096 O.2       1 <0>        -0.4539
     23 N4         -8.3795    3.6097    7.8330 N.am      1 <0>        -0.6805
     24 C17        -9.3846    2.7327    7.9452 C.2       1 <0>         0.7031
     25 O3        -10.5045    3.0312    8.3110 O.2       1 <0>        -0.5335
     26 N5         -9.0154    1.4824    7.6072 N.am      1 <0>        -0.7193
     27 H2         -1.2393   -3.4351    1.9302 H         1 <0>         0.1209
     28 H3          0.2825   -4.1553    1.3524 H         1 <0>         0.1172
     29 H4          0.2980   -3.0278    2.7296 H         1 <0>         0.1166
     30 H5          0.4840   -0.7362   -2.0244 H         1 <0>         0.2244
     31 H6          0.2725    0.9957   -0.0629 H         1 <0>         0.2230
     32 H7          0.3683   -0.8730    3.2344 H         1 <0>         0.1235
     33 H8          0.2241    0.7645    2.5516 H         1 <0>         0.1315
     34 H9         -3.4555    0.7173    2.1630 H         1 <0>         0.0736
     35 H10        -2.0016    1.7414    2.0875 H         1 <0>         0.0726
     36 H11        -2.2320    0.4342    0.9016 H         1 <0>         0.0557
     37 H12        -1.2418   -0.4273    4.9713 H         1 <0>         0.0770
     38 H13        -1.5047    1.2451    4.4215 H         1 <0>         0.0794
     39 H14        -3.8995   -0.2033    4.0423 H         1 <0>         0.4009
     40 H15        -5.4303   -0.6790    6.2087 H         1 <0>         0.1020
     41 H16        -5.6086    2.2858    5.5043 H         1 <0>         0.0899
     42 H17        -5.7991    0.9360    4.3594 H         1 <0>         0.0746
     43 H18        -8.0037    1.7857    5.1313 H         1 <0>         0.0816
     44 H19        -7.7392    0.1043    5.6505 H         1 <0>         0.0910
     45 H20        -6.8837    1.0208    9.1847 H         1 <0>         0.0827
     46 H21        -7.0712   -0.3519    8.0679 H         1 <0>         0.0897
     47 H22        -4.6779    0.1702    8.4172 H         1 <0>         0.0834
     48 H23        -4.9560    1.8400    7.8663 H         1 <0>         0.0917
     49 H24        -8.4566    4.5557    8.0333 H         1 <0>         0.4353
     50 H25        -9.5751    0.6901    7.6120 H         1 <0>         0.4427
     51 H26         0.2332   -3.0291   -0.9636 H         1 <0>         0.4631
@<TRIPOS>BOND
     1    1    2 1
     2    1   27 1
     3    1   28 1
     4    1   29 1
     5    2    6 1
     6    2    3 2
     7    3    4 1
     8    3   51 1
     9    4    5 2
    10    4   30 1
    11    5    6 1
    12    5   31 1
    13    6    7 1
    14    7    8 1
    15    7   32 1
    16    7   33 1
    17    8    9 1
    18    8   10 1
    19    8   11 1
    20   10   34 1
    21   10   35 1
    22   10   36 1
    23   11   12 1
    24   11   37 1
    25   11   38 1
    26   12   13 am
    27   12   39 1
    28   13   14 2
    29   13   15 1
    30   15   20 1
    31   15   16 1
    32   15   40 1
    33   16   17 1
    34   16   41 1
    35   16   42 1
    36   17   18 1
    37   17   43 1
    38   17   44 1
    39   18   26 1
    40   18   19 1
    41   18   21 1
    42   19   20 1
    43   19   45 1
    44   19   46 1
    45   20   47 1
    46   20   48 1
    47   21   22 2
    48   21   23 am
    49   23   24 am
    50   23   49 1
    51   24   25 2
    52   24   26 am
    53   26   50 1
@<TRIPOS>MOLECULE
ZINC12883880
   59    64     0     0     0
SMALL
USER_CHARGES
(1R,3S,3aR,6aS)-5-cyclopentyl-1-[(3,4-dihydroxyphenyl)methyl]spiro[1,2,3a,6a-tetrahydropyrrolo[4,3-c]pyrrole-3,3'-indoline]-2',4,6-trione
@<TRIPOS>ATOM
      1 C1          1.2322    3.4504    1.8462 C.ar      1 <0>        -0.1208
      2 C2          1.2577    2.1319    2.2631 C.ar      1 <0>        -0.0405
      3 C3          0.1105    1.3671    2.2243 C.ar      1 <0>        -0.1248
      4 C4         -1.0822    1.9157    1.7588 C.ar      1 <0>         0.1672
      5 C5         -1.0969    3.2447    1.3456 C.ar      1 <0>        -0.2098
      6 C6          0.0506    4.0047    1.3872 C.ar      1 <0>        -0.0185
      7 C7         -2.5083    3.5248    0.9142 C.3       1 <0>         0.0911
      8 C8         -2.5729    3.9560   -0.5562 C.3       1 <0>        -0.1200
      9 H1         -2.7389    3.1174   -1.2324 H         1 <0>         0.1766
     10 C9         -3.7171    5.0067   -0.6051 C.3       1 <0>        -0.1319
     11 H2         -4.4955    4.7507   -1.3239 H         1 <0>         0.1804
     12 C10        -4.2372    5.0946    0.8452 C.3       1 <0>         0.0396
     13 H3         -4.4994    6.1234    1.0923 H         1 <0>         0.1712
     14 C11        -5.4479    4.1782    1.0328 C.3       1 <0>        -0.1029
     15 C12        -6.7121    4.9566    0.7741 C.ar      1 <0>        -0.0999
     16 C13        -7.2405    5.0095   -0.5023 C.ar      1 <0>        -0.0966
     17 C14        -8.4005    5.7214   -0.7446 C.ar      1 <0>        -0.1235
     18 C15        -9.0359    6.3845    0.2930 C.ar      1 <0>         0.0991
     19 C16        -8.5038    6.3317    1.5777 C.ar      1 <0>         0.0881
     20 C17        -7.3439    5.6115    1.8148 C.ar      1 <0>        -0.1236
     21 O1         -9.1237    6.9808    2.5993 O.3       1 <0>        -0.4859
     22 O2        -10.1768    7.0857    0.0563 O.3       1 <0>        -0.4858
     23 C18        -2.9733    6.2937   -0.9572 C.2       1 <0>         0.5131
     24 O3         -3.4873    7.3838   -1.0873 O.2       1 <0>        -0.4205
     25 N1         -1.6697    6.0309   -1.1056 N.am      1 <0>        -0.5625
     26 C19        -1.3349    4.7510   -0.9065 C.2       1 <0>         0.5188
     27 O4         -0.2135    4.2988   -0.9931 O.2       1 <0>        -0.4211
     28 C20        -0.6889    7.0610   -1.4565 C.3       1 <0>         0.1211
     29 C21        -0.7137    8.1931   -0.4089 C.3       1 <0>        -0.1347
     30 C22        -0.4899    9.4825   -1.2388 C.3       1 <0>        -0.1207
     31 C23        -1.2938    9.2011   -2.5325 C.3       1 <0>        -0.1232
     32 C24        -1.0572    7.7015   -2.8063 C.3       1 <0>        -0.1320
     33 C25        -3.2466    2.2314    1.1268 C.2       1 <0>         0.5347
     34 O5         -4.4204    2.0224    0.9038 O.2       1 <0>        -0.4374
     35 N2         -2.3533    1.3534    1.6222 N.am      1 <0>        -0.6352
     36 H4          2.1328    4.0457    1.8785 H         1 <0>         0.1466
     37 H5          2.1801    1.6992    2.6212 H         1 <0>         0.1497
     38 H6          0.1382    0.3382    2.5516 H         1 <0>         0.1449
     39 H7          0.0283    5.0340    1.0610 H         1 <0>         0.1283
     40 H8         -5.3847    3.3448    0.3331 H         1 <0>         0.1463
     41 H9         -5.4592    3.7956    2.0534 H         1 <0>         0.0986
     42 H10        -6.7462    4.4931   -1.3119 H         1 <0>         0.1313
     43 H11        -8.8112    5.7612   -1.7426 H         1 <0>         0.1410
     44 H12        -6.9313    5.5652    2.8118 H         1 <0>         0.1333
     45 H13        -9.7820    6.4456    3.0635 H         1 <0>         0.3943
     46 H14       -10.9860    6.5657    0.1563 H         1 <0>         0.3962
     47 H15         0.3082    6.6239   -1.5103 H         1 <0>         0.1190
     48 H16        -1.6802    8.2263    0.0941 H         1 <0>         0.0749
     49 H17         0.0900    8.0604    0.3153 H         1 <0>         0.0778
     50 H18         0.5681    9.6179   -1.4633 H         1 <0>         0.0757
     51 H19        -0.8896   10.3521   -0.7172 H         1 <0>         0.0777
     52 H20        -0.9133    9.8041   -3.3569 H         1 <0>         0.0748
     53 H21        -2.3541    9.3971   -2.3730 H         1 <0>         0.0760
     54 H22        -0.2385    7.5759   -3.5149 H         1 <0>         0.0832
     55 H23        -1.9657    7.2459   -3.2002 H         1 <0>         0.0701
     56 H24        -2.5678    0.4369    1.8567 H         1 <0>         0.4387
     57 N3         -3.1131    4.6182    1.6543 N.4       1 <0>        -0.4936
     58 H25        -2.4310    5.3730    1.7934 H         1 <0>         0.4403
     59 H26        -3.4479    4.2871    2.5667 H         1 <0>         0.4453
@<TRIPOS>BOND
     1    1    6 ar
     2    1    2 ar
     3    1   36 1
     4    2    3 ar
     5    2   37 1
     6    3    4 ar
     7    3   38 1
     8    4   35 1
     9    4    5 ar
    10    5    6 ar
    11    5    7 1
    12    6   39 1
    13    7    8 1
    14    7   33 1
    15    7   57 1
    16    8    9 1
    17    8   26 1
    18    8   10 1
    19   10   11 1
    20   10   12 1
    21   10   23 1
    22   12   13 1
    23   12   14 1
    24   12   57 1
    25   14   15 1
    26   14   40 1
    27   14   41 1
    28   15   20 ar
    29   15   16 ar
    30   16   17 ar
    31   16   42 1
    32   17   18 ar
    33   17   43 1
    34   18   19 ar
    35   18   22 1
    36   19   20 ar
    37   19   21 1
    38   20   44 1
    39   21   45 1
    40   22   46 1
    41   23   24 2
    42   23   25 am
    43   25   26 am
    44   25   28 1
    45   26   27 2
    46   28   32 1
    47   28   29 1
    48   28   47 1
    49   29   30 1
    50   29   48 1
    51   29   49 1
    52   30   31 1
    53   30   50 1
    54   30   51 1
    55   31   32 1
    56   31   52 1
    57   31   53 1
    58   32   54 1
    59   32   55 1
    60   33   34 2
    61   33   35 am
    62   35   56 1
    63   57   58 1
    64   57   59 1
@<TRIPOS>MOLECULE
ZINC38827304
   50    54     0     0     0
SMALL
USER_CHARGES

@<TRIPOS>ATOM
      1 C1         -0.0166    1.3734    0.0096 C.ar      1 <0>        -0.1148
      2 C2          1.1694    2.0960    0.0021 C.ar      1 <0>        -0.0720
      3 C3          2.3868    1.4533   -0.0134 C.ar      1 <0>        -0.0937
      4 C4          2.4319    0.0576   -0.0213 C.ar      1 <0>         0.1339
      5 C5          1.2238   -0.6740   -0.0133 C.ar      1 <0>        -0.1803
      6 C6          0.0021   -0.0041    0.0020 C.ar      1 <0>        -0.0434
      7 C7          1.3057   -2.1421   -0.0225 C.2       1 <0>         0.5528
      8 O1          0.3025   -2.8315   -0.0167 O.2       1 <0>        -0.4841
      9 N1          2.5401   -2.6970   -0.0382 N.am      1 <0>        -0.6418
     10 H1          2.6329   -3.6626   -0.0446 H         1 <0>         0.4230
     11 C8          3.6503   -1.9141   -0.0454 C.2       1 <0>         0.3759
     12 N2          3.6091   -0.6164   -0.0371 N.2       1 <0>        -0.4924
     13 C9          4.9990   -2.5863   -0.0634 C.3       1 <0>         0.0006
     14 H2          4.9685   -3.5144    0.5074 H         1 <0>         0.1587
     15 C10         5.4365   -2.8551   -1.4864 C.ar      1 <0>         0.0439
     16 C11         6.6221   -2.1535   -1.7206 C.ar      1 <0>         0.3824
     17 N3          7.2027   -2.2372   -2.9173 N.ar      1 <0>        -0.4329
     18 C12         6.6604   -2.9788   -3.8754 C.ar      1 <0>         0.2908
     19 C13         5.4674   -3.6803   -3.6281 C.ar      1 <0>         0.1753
     20 N4          4.8922   -3.5933   -2.4303 N.ar      1 <0>        -0.3380
     21 C14         4.8756   -4.4824   -4.6562 C.1       1 <0>         0.2382
     22 N5          4.4061   -5.1187   -5.4718 N.1       1 <0>        -0.3198
     23 C15         7.2898   -3.0646   -5.1588 C.1       1 <0>         0.2303
     24 N6          7.7892   -3.1327   -6.1769 N.1       1 <0>        -0.3042
     25 N7          7.0242   -1.4426   -0.6024 N.pl3     1 <0>        -0.5806
     26 C16         6.0761   -1.6445    0.4997 C.3       1 <0>         0.2784
     27 H3          5.6305   -0.6944    0.7944 H         1 <0>         0.2100
     28 N8          6.7497   -2.2692    1.6459 N.4       1 <0>        -0.6504
     29 C17         8.2265   -0.6087   -0.5287 C.3       1 <0>         0.1126
     30 C18         7.8826    0.8206   -0.9524 C.3       1 <0>         0.0591
     31 H4          7.4118    0.8116   -1.9355 H         1 <0>         0.0940
     32 C19         9.1660    1.6777   -0.9942 C.3       1 <0>        -0.1500
     33 C20         8.6749    3.0347   -0.4205 C.3       1 <0>        -0.1576
     34 C21         7.6241    2.5546    0.6120 C.3       1 <0>         0.0479
     35 O2          6.9964    1.4115    0.0053 O.3       1 <0>        -0.3762
     36 H5         -0.9617    1.8959    0.0260 H         1 <0>         0.1421
     37 H6          1.1363    3.1755    0.0083 H         1 <0>         0.1419
     38 H7          3.3025    2.0258   -0.0198 H         1 <0>         0.1446
     39 H8         -0.9234   -0.5607    0.0082 H         1 <0>         0.1449
     40 H9          7.1859   -3.1301    1.3514 H         1 <0>         0.4343
     41 H10         7.4532   -1.6416    2.0055 H         1 <0>         0.4442
     42 H11         8.6031   -0.6038    0.4942 H         1 <0>         0.0942
     43 H12         8.9894   -1.0115   -1.1948 H         1 <0>         0.1225
     44 H13         9.9412    1.2464   -0.3609 H         1 <0>         0.0824
     45 H14         9.5209    1.7950   -2.0182 H         1 <0>         0.0922
     46 H15         9.4880    3.5722    0.0675 H         1 <0>         0.0905
     47 H16         8.2129    3.6452   -1.1964 H         1 <0>         0.0841
     48 H17         8.1122    2.2689    1.5437 H         1 <0>         0.0630
     49 H18         6.8877    3.3373    0.7942 H         1 <0>         0.0925
     50 H19         6.0728   -2.4650    2.3681 H         1 <0>         0.4511
@<TRIPOS>BOND
     1    1    6 ar
     2    1    2 ar
     3    1   36 1
     4    2    3 ar
     5    2   37 1
     6    3    4 ar
     7    3   38 1
     8    4   12 1
     9    4    5 ar
    10    5    6 ar
    11    5    7 1
    12    6   39 1
    13    7    8 2
    14    7    9 am
    15    9   10 1
    16    9   11 1
    17   11   12 2
    18   11   13 1
    19   13   14 1
    20   13   26 1
    21   13   15 1
    22   15   20 ar
    23   15   16 ar
    24   16   17 ar
    25   16   25 1
    26   17   18 ar
    27   18   19 ar
    28   18   23 1
    29   19   20 ar
    30   19   21 1
    31   21   22 3
    32   23   24 3
    33   25   26 1
    34   25   29 1
    35   26   27 1
    36   26   28 1
    37   28   40 1
    38   28   41 1
    39   28   50 1
    40   29   30 1
    41   29   42 1
    42   29   43 1
    43   30   31 1
    44   30   35 1
    45   30   32 1
    46   32   33 1
    47   32   44 1
    48   32   45 1
    49   33   34 1
    50   33   46 1
    51   33   47 1
    52   34   35 1
    53   34   48 1
    54   34   49 1
@<TRIPOS>MOLECULE
ZINC44714292
   67    71     0     0     0
SMALL
USER_CHARGES

@<TRIPOS>ATOM
      1 C1          2.3112   -0.8497   -6.5503 C.3       1 <0>        -0.1033
      2 C2          2.7973   -0.9615   -5.1283 C.2       1 <0>         0.0937
      3 C3          2.1310   -0.5544   -4.0231 C.2       1 <0>        -0.2501
      4 C4          2.9286   -0.8398   -2.9101 C.2       1 <0>         0.0973
      5 N1          4.0341   -1.3982   -3.3320 N.2       1 <0>        -0.2807
      6 N2          3.9724   -1.4908   -4.7284 N.pl3     1 <0>        -0.4687
      7 H1          4.6549   -1.8668   -5.3061 H         1 <0>         0.4417
      8 C5          2.5760   -0.5529   -1.4733 C.3       1 <0>        -0.0836
      9 C6          0.7702    0.0927   -3.9962 C.3       1 <0>         0.2242
     10 H2          0.3792    0.0742   -2.9789 H         1 <0>         0.0975
     11 C7          0.8852    1.5422   -4.4721 C.3       1 <0>        -0.1572
     12 N3         -0.1372   -0.6415   -4.8816 N.am      1 <0>        -0.7249
     13 C8         -1.4708   -0.5300   -4.7223 C.2       1 <0>         0.5141
     14 O1         -1.9198    0.1780   -3.8459 O.2       1 <0>        -0.5103
     15 C9         -2.4042   -1.2852   -5.6331 C.3       1 <0>        -0.1153
     16 H3         -1.9232   -2.1913   -6.0015 H         1 <0>         0.1144
     17 C10        -3.7137   -1.6349   -4.8913 C.3       1 <0>         0.1199
     18 N4         -4.6495   -0.5428   -5.2487 N.am      1 <0>        -0.5998
     19 C11        -4.3732   -0.2743   -6.6803 C.3       1 <0>         0.1034
     20 C12        -2.8416   -0.3953   -6.8086 C.3       1 <0>        -0.0772
     21 C13        -2.4730   -1.0529   -8.1350 C.3       1 <0>        -0.1333
     22 C14        -2.8649   -0.1232   -9.2869 C.3       1 <0>        -0.0102
     23 N5         -2.1658    1.1594   -9.1426 N.4       1 <0>        -0.5042
     24 C15        -2.5966    1.8285   -7.9091 C.3       1 <0>        -0.0105
     25 C16        -2.1932    0.9813   -6.6989 C.3       1 <0>        -0.1461
     26 C17        -5.5490    0.0681   -4.4522 C.2       1 <0>         0.5943
     27 O2         -5.5930   -0.2003   -3.2681 O.2       1 <0>        -0.5027
     28 C18        -6.4847    1.0677   -5.0212 C.ar      1 <0>         0.1247
     29 C19        -7.3324    1.7805   -4.1603 C.ar      1 <0>        -0.1267
     30 C20        -8.1982    2.7039   -4.6714 C.ar      1 <0>        -0.0488
     31 C21        -8.2077    2.9089   -6.0639 C.ar      1 <0>        -0.0855
     32 C22        -9.0719    3.8431   -6.6574 C.ar      1 <0>        -0.0909
     33 C23        -9.0531    4.0149   -8.0077 C.ar      1 <0>        -0.1076
     34 C24        -8.1867    3.2755   -8.8119 C.ar      1 <0>        -0.0909
     35 C25        -7.3357    2.3620   -8.2726 C.ar      1 <0>        -0.1017
     36 C26        -7.3246    2.1548   -6.8798 C.ar      1 <0>         0.1204
     37 N6         -6.4971    1.2700   -6.3243 N.ar      1 <0>        -0.4549
     38 H4          1.7514   -1.7469   -6.8145 H         1 <0>         0.0806
     39 H5          1.6651    0.0230   -6.6459 H         1 <0>         0.0845
     40 H6          3.1654   -0.7444   -7.2191 H         1 <0>         0.0803
     41 H7          2.1304   -1.4405   -1.0244 H         1 <0>         0.0821
     42 H8          3.4783   -0.2823   -0.9249 H         1 <0>         0.0802
     43 H9          1.8644    0.2717   -1.4316 H         1 <0>         0.0798
     44 H10         1.5604    2.0884   -3.8133 H         1 <0>         0.0718
     45 H11         1.2763    1.5607   -5.4894 H         1 <0>         0.0524
     46 H12        -0.0990    2.0102   -4.4527 H         1 <0>         0.0620
     47 H13         0.2219   -1.2077   -5.5826 H         1 <0>         0.3951
     48 H14        -4.1005   -2.5943   -5.2347 H         1 <0>         0.0888
     49 H15        -3.5467   -1.6550   -3.8143 H         1 <0>         0.1018
     50 H16        -4.8664   -1.0159   -7.3086 H         1 <0>         0.0826
     51 H17        -4.6994    0.7305   -6.9488 H         1 <0>         0.1143
     52 H18        -1.3989   -1.2357   -8.1643 H         1 <0>         0.0954
     53 H19        -3.0064   -1.9984   -8.2330 H         1 <0>         0.1219
     54 H20        -2.5875   -0.5832  -10.2353 H         1 <0>         0.1394
     55 H21        -3.9415    0.0459   -9.2668 H         1 <0>         0.1344
     56 H22        -1.1707    0.9963   -9.1052 H         1 <0>         0.4266
     57 H23        -2.1214    2.8071   -7.8418 H         1 <0>         0.1370
     58 H24        -3.6796    1.9511   -7.9218 H         1 <0>         0.1347
     59 H25        -2.5293    1.4700   -5.7844 H         1 <0>         0.1236
     60 H26        -1.1090    0.8721   -6.6764 H         1 <0>         0.0949
     61 H27        -7.3004    1.5990   -3.0961 H         1 <0>         0.1540
     62 H28        -8.8586    3.2621   -4.0244 H         1 <0>         0.1518
     63 H29        -9.7482    4.4220   -6.0459 H         1 <0>         0.1380
     64 H30        -9.7188    4.7336   -8.4624 H         1 <0>         0.1347
     65 H31        -8.1918    3.4305   -9.8807 H         1 <0>         0.1340
     66 H32        -6.6709    1.7979   -8.9100 H         1 <0>         0.1299
     67 H33        -2.3780    1.7476   -9.9344 H         1 <0>         0.4331
@<TRIPOS>BOND
     1    1    2 1
     2    1   38 1
     3    1   39 1
     4    1   40 1
     5    2    6 1
     6    2    3 2
     7    3    4 1
     8    3    9 1
     9    4    5 2
    10    4    8 1
    11    5    6 1
    12    6    7 1
    13    8   41 1
    14    8   42 1
    15    8   43 1
    16    9   10 1
    17    9   11 1
    18    9   12 1
    19   11   44 1
    20   11   45 1
    21   11   46 1
    22   12   13 am
    23   12   47 1
    24   13   14 2
    25   13   15 1
    26   15   16 1
    27   15   20 1
    28   15   17 1
    29   17   18 1
    30   17   48 1
    31   17   49 1
    32   18   19 1
    33   18   26 am
    34   19   20 1
    35   19   50 1
    36   19   51 1
    37   20   25 1
    38   20   21 1
    39   21   22 1
    40   21   52 1
    41   21   53 1
    42   22   23 1
    43   22   54 1
    44   22   55 1
    45   23   24 1
    46   23   56 1
    47   23   67 1
    48   24   25 1
    49   24   57 1
    50   24   58 1
    51   25   59 1
    52   25   60 1
    53   26   27 2
    54   26   28 1
    55   28   37 ar
    56   28   29 ar
    57   29   30 ar
    58   29   61 1
    59   30   31 ar
    60   30   62 1
    61   31   36 ar
    62   31   32 ar
    63   32   33 ar
    64   32   63 1
    65   33   34 ar
    66   33   64 1
    67   34   35 ar
    68   34   65 1
    69   35   36 ar
    70   35   66 1
    71   36   37 ar
@<TRIPOS>MOLECULE
ZINC63281447
   53    56     0     0     0
SMALL
USER_CHARGES

@<TRIPOS>ATOM
      1 C1         -0.0187    1.5258    0.0104 C.3       1 <0>        -0.1656
      2 C2          0.0021   -0.0041    0.0020 C.3       1 <0>         0.1280
      3 H1          0.5123   -0.3556   -0.8948 H         1 <0>         0.1255
      4 C3          0.7309   -0.5033    1.2229 C.2       1 <0>         0.5222
      5 O1          0.1587   -1.2128    2.0229 O.2       1 <0>        -0.5196
      6 N1          2.0187   -0.1613    1.4257 N.am      1 <0>        -0.7168
      7 C4          2.7273   -0.6466    2.6126 C.3       1 <0>         0.4177
      8 H2          2.5251   -1.7042    2.7820 H         1 <0>         0.1395
      9 N2          4.1708   -0.3948    2.5062 N.pl3     1 <0>        -0.7398
     10 C5          4.7505    0.4439    3.4570 C.ar      1 <0>         0.1654
     11 C6          6.1102    0.7983    3.5154 C.ar      1 <0>        -0.1502
     12 C7          6.5864    1.6357    4.4971 C.ar      1 <0>        -0.0751
     13 C8          5.7438    2.1585    5.4607 C.ar      1 <0>        -0.1372
     14 C9          4.3995    1.8267    5.4278 C.ar      1 <0>        -0.0433
     15 C10         3.9242    0.9881    4.4451 C.ar      1 <0>        -0.1362
     16 S1          2.2990    0.3538    4.0934 S.3       1 <0>        -0.1288
     17 N3         -1.3723   -0.5112    0.0124 N.am      1 <0>        -0.6926
     18 C11        -2.0508   -0.6427   -1.1446 C.2       1 <0>         0.5297
     19 O2         -1.5236   -0.3413   -2.1944 O.2       1 <0>        -0.5019
     20 C12        -3.4646   -1.1643   -1.1339 C.3       1 <0>         0.0787
     21 H3         -4.0986   -0.5177   -0.5272 H         1 <0>         0.1956
     22 C13        -3.4948   -2.5769   -0.5960 C.2       1 <0>        -0.0014
     23 C14        -3.9883   -3.3481   -1.5910 C.ar      1 <0>        -0.1157
     24 C15        -4.2537   -4.7898   -1.6777 C.ar      1 <0>        -0.1466
     25 C16        -4.7606   -5.3008   -2.8248 C.ar      1 <0>         0.1207
     26 C17        -5.0440   -4.4409   -3.9670 C.ar      1 <0>         0.3131
     27 C18        -4.8143   -3.1048   -3.9303 C.ar      1 <0>        -0.3153
     28 C19        -4.2846   -2.4961   -2.7644 C.ar      1 <0>         0.3640
     29 N4         -3.9851   -1.2420   -2.5030 N.pl3     1 <0>        -0.5651
     30 O3         -5.5509   -4.9920   -5.0977 O.3       1 <0>        -0.2604
     31 C20        -5.8118   -4.1080   -6.1897 C.3       1 <0>         0.0042
     32 O4         -5.0083   -6.6346   -2.9123 O.3       1 <0>        -0.2864
     33 C21        -4.7101   -7.4267   -1.7610 C.3       1 <0>         0.0154
     34 H4          1.0039    1.9031    0.0027 H         1 <0>         0.0817
     35 H5         -0.5459    1.8868   -0.8726 H         1 <0>         0.0792
     36 H6         -0.5289    1.8773    0.9072 H         1 <0>         0.0747
     37 H7          2.4764    0.4061    0.7859 H         1 <0>         0.4083
     38 H8          4.7010   -0.7974    1.8008 H         1 <0>         0.4156
     39 H9          6.7928    0.4056    2.7764 H         1 <0>         0.1248
     40 H10         7.6360    1.8894    4.5155 H         1 <0>         0.1324
     41 H11         6.1279    2.8152    6.2272 H         1 <0>         0.1369
     42 H12         3.7255    2.2253    6.1716 H         1 <0>         0.1324
     43 H13        -1.7940   -0.7522    0.8520 H         1 <0>         0.4194
     44 H14        -3.1842   -2.9042    0.3852 H         1 <0>         0.2134
     45 H15        -4.0473   -5.4349   -0.8365 H         1 <0>         0.1766
     46 H16        -5.0364   -2.4994   -4.7966 H         1 <0>         0.1767
     47 H17        -6.5358   -3.3537   -5.8816 H         1 <0>         0.0794
     48 H18        -4.8851   -3.6202   -6.4917 H         1 <0>         0.0794
     49 H19        -6.2137   -4.6759   -7.0288 H         1 <0>         0.1291
     50 H20        -5.2998   -7.0742   -0.9148 H         1 <0>         0.0699
     51 H21        -4.9537   -8.4695   -1.9644 H         1 <0>         0.1202
     52 H22        -3.6493   -7.3406   -1.5255 H         1 <0>         0.0692
     53 H23        -4.0902   -0.4946   -3.1122 H         1 <0>         0.4592
@<TRIPOS>BOND
     1    1    2 1
     2    1   34 1
     3    1   35 1
     4    1   36 1
     5    2    3 1
     6    2    4 1
     7    2   17 1
     8    4    5 2
     9    4    6 am
    10    6    7 1
    11    6   37 1
    12    7    8 1
    13    7   16 1
    14    7    9 1
    15    9   10 1
    16    9   38 1
    17   10   15 ar
    18   10   11 ar
    19   11   12 ar
    20   11   39 1
    21   12   13 ar
    22   12   40 1
    23   13   14 ar
    24   13   41 1
    25   14   15 ar
    26   14   42 1
    27   15   16 1
    28   17   18 am
    29   17   43 1
    30   18   19 2
    31   18   20 1
    32   20   21 1
    33   20   29 1
    34   20   22 1
    35   22   23 2
    36   22   44 1
    37   23   28 ar
    38   23   24 ar
    39   24   25 ar
    40   24   45 1
    41   25   26 ar
    42   25   32 1
    43   26   27 ar
    44   26   30 1
    45   27   28 ar
    46   27   46 1
    47   28   29 2
    48   29   53 1
    49   30   31 1
    50   31   47 1
    51   31   48 1
    52   31   49 1
    53   32   33 1
    54   33   50 1
    55   33   51 1
    56   33   52 1
@<TRIPOS>MOLECULE
ZINC67062407
   56    57     0     0     0
SMALL
USER_CHARGES

@<TRIPOS>ATOM
      1 C1          3.2739   -2.1486    1.7830 C.3       1 <0>        -0.1533
      2 C2          2.7625   -1.7457    0.3984 C.3       1 <0>         0.0766
      3 H1          3.5113   -1.9957   -0.3532 H         1 <0>         0.0716
      4 C3          1.4613   -2.4970    0.0946 C.3       1 <0>         0.0646
      5 N1          0.8936   -1.9570   -1.1510 N.pl3     1 <0>        -0.5872
      6 C4          0.7441   -0.4977   -1.2674 C.3       1 <0>         0.0721
      7 C5          2.0803    0.1562   -0.8972 C.3       1 <0>         0.0446
      8 O1          2.5116   -0.3385    0.3728 O.3       1 <0>        -0.3606
      9 C6          0.5102   -2.8004   -2.1873 C.ar      1 <0>         0.4498
     10 C7         -0.1344   -2.2739   -3.3022 C.ar      1 <0>        -0.1963
     11 C8         -0.5103   -3.1245   -4.3259 C.ar      1 <0>         0.0536
     12 C9         -0.2279   -4.4784   -4.2000 C.ar      1 <0>        -0.1616
     13 C10         0.4146   -4.9325   -3.0659 C.ar      1 <0>         0.1687
     14 N2          0.7666   -4.0969   -2.1070 N.ar      1 <0>        -0.5070
     15 C11        -0.6194   -5.4422   -5.2904 C.3       1 <0>         0.1825
     16 N3          0.4753   -5.5568   -6.2571 N.am      1 <0>        -0.7504
     17 C12         0.3488   -6.3689   -7.3253 C.2       1 <0>         0.7154
     18 O2         -0.6739   -7.0065   -7.4865 O.2       1 <0>        -0.5574
     19 N4          1.3559   -6.4743   -8.2147 N.am      1 <0>        -0.5275
     20 N5          2.5343   -5.7397   -8.0289 N.am      1 <0>        -0.5390
     21 C13         3.5414   -5.8451   -8.9183 C.2       1 <0>         0.5136
     22 O3          3.4276   -6.5759   -9.8795 O.2       1 <0>        -0.5161
     23 C14         4.8089   -5.0548   -8.7185 C.3       1 <0>        -0.1299
     24 C15         5.7821   -5.3544   -9.8605 C.3       1 <0>        -0.1034
     25 C16         7.0689   -4.5520   -9.6577 C.3       1 <0>        -0.0965
     26 C17         7.7747   -5.0325   -8.3880 C.3       1 <0>        -0.1523
     27 C18         7.9913   -4.7545  -10.8615 C.3       1 <0>        -0.1512
     28 H2          2.5246   -1.8982    2.5340 H         1 <0>         0.0750
     29 H3          3.4632   -3.2218    1.8023 H         1 <0>         0.0796
     30 H4          4.1981   -1.6126    1.9990 H         1 <0>         0.0824
     31 H5          1.6710   -3.5596   -0.0280 H         1 <0>         0.0874
     32 H6          0.7551   -2.3536    0.9123 H         1 <0>         0.1127
     33 H7          0.4788   -0.2364   -2.2918 H         1 <0>         0.1126
     34 H8         -0.0343   -0.1530   -0.5867 H         1 <0>         0.1078
     35 H9          2.8263   -0.0863   -1.6540 H         1 <0>         0.0658
     36 H10         1.9537    1.2374   -0.8428 H         1 <0>         0.1281
     37 H11        -0.3388   -1.2154   -3.3672 H         1 <0>         0.1828
     38 H12        -1.0124   -2.7444   -5.2033 H         1 <0>         0.1782
     39 H13         0.6358   -5.9846   -2.9638 H         1 <0>         0.2094
     40 H14        -0.8233   -6.4203   -4.8547 H         1 <0>         0.0976
     41 H15        -1.5133   -5.0759   -5.7953 H         1 <0>         0.1022
     42 H16         1.2911   -5.0481   -6.1285 H         1 <0>         0.3918
     43 H17         1.2649   -7.0588   -8.9834 H         1 <0>         0.4493
     44 H18         2.6253   -5.1551   -7.2602 H         1 <0>         0.4144
     45 H19         4.5757   -3.9901   -8.7098 H         1 <0>         0.0999
     46 H20         5.2657   -5.3345   -7.7692 H         1 <0>         0.1010
     47 H21         6.0153   -6.4191   -9.8693 H         1 <0>         0.0748
     48 H22         5.3253   -5.0746  -10.8099 H         1 <0>         0.0749
     49 H23         6.8259   -3.4940   -9.5601 H         1 <0>         0.0709
     50 H24         8.6915   -4.4609   -8.2435 H         1 <0>         0.0574
     51 H25         7.1176   -4.8882   -7.5304 H         1 <0>         0.0513
     52 H26         8.0177   -6.0905   -8.4856 H         1 <0>         0.0575
     53 H27         7.4885   -4.4122  -11.7661 H         1 <0>         0.0572
     54 H28         8.9081   -4.1829  -10.7170 H         1 <0>         0.0577
     55 H29         8.2343   -5.8125  -10.9591 H         1 <0>         0.0573
     56 H30         1.2206   -4.4416   -1.3222 H         1 <0>         0.4401
@<TRIPOS>BOND
     1    1    2 1
     2    1   28 1
     3    1   29 1
     4    1   30 1
     5    2    3 1
     6    2    8 1
     7    2    4 1
     8    4    5 1
     9    4   31 1
    10    4   32 1
    11    5    6 1
    12    5    9 1
    13    6    7 1
    14    6   33 1
    15    6   34 1
    16    7    8 1
    17    7   35 1
    18    7   36 1
    19    9   14 ar
    20    9   10 ar
    21   10   11 ar
    22   10   37 1
    23   11   12 ar
    24   11   38 1
    25   12   13 ar
    26   12   15 1
    27   13   14 ar
    28   13   39 1
    29   14   56 1
    30   15   16 1
    31   15   40 1
    32   15   41 1
    33   16   17 am
    34   16   42 1
    35   17   18 2
    36   17   19 am
    37   19   20 1
    38   19   43 1
    39   20   21 am
    40   20   44 1
    41   21   22 2
    42   21   23 1
    43   23   24 1
    44   23   45 1
    45   23   46 1
    46   24   25 1
    47   24   47 1
    48   24   48 1
    49   25   26 1
    50   25   27 1
    51   25   49 1
    52   26   50 1
    53   26   51 1
    54   26   52 1
    55   27   53 1
    56   27   54 1
    57   27   55 1
@<TRIPOS>MOLECULE
ZINC09318936
   53    56     0     0     0
SMALL
USER_CHARGES
2,6-dihydroxy-5-(methoxyBLAHyl)-3-sec-butyl-pyrimidin-4-one
@<TRIPOS>ATOM
      1 C1          3.2239    4.7740   -2.7098 C.3       1 <0>        -0.1543
      2 C2          4.0524    5.1102   -1.4682 C.3       1 <0>        -0.1421
      3 C3          3.2186    4.8481   -0.2124 C.3       1 <0>         0.1118
      4 H1          2.2833    5.4045   -0.2746 H         1 <0>         0.1270
      5 C4          4.0003    5.3009    1.0224 C.3       1 <0>        -0.1720
      6 N1          2.9288    3.4158   -0.1088 N.am      1 <0>        -0.5039
      7 C5          1.6495    2.9861   -0.1027 C.2       1 <0>         0.5702
      8 O1          0.7266    3.7812   -0.1825 O.2       1 <0>        -0.5197
      9 C6          1.3996    1.6114   -0.0027 C.2       1 <0>        -0.4389
     10 C7          2.4753    0.7461    0.0919 C.2       1 <0>         0.4866
     11 N2          3.7213    1.2316    0.0745 N.2       1 <0>        -0.6385
     12 C8          3.9482    2.5225   -0.0196 C.2       1 <0>         0.6620
     13 O2          5.2206    2.9700   -0.0281 O.3       1 <0>        -0.4313
     14 O3          2.2673   -0.5872    0.1954 O.3       1 <0>        -0.4369
     15 C9         -0.0127    1.0858    0.0080 C.3       1 <0>         0.2169
     16 H2          0.0021   -0.0041    0.0020 H         1 <0>         0.1581
     17 C10        -0.7276    1.5769    1.2446 C.2       1 <0>         0.0518
     18 C11        -1.9950    2.0493    1.2244 C.2       1 <0>        -0.1612
     19 C12        -2.3343    2.4222    2.5795 C.ar      1 <0>        -0.0564
     20 C13        -3.4896    2.9614    3.1552 C.ar      1 <0>        -0.1073
     21 C14        -3.4565    3.1944    4.5219 C.ar      1 <0>         0.1121
     22 C15        -2.3322    2.9078    5.2869 C.ar      1 <0>        -0.1691
     23 C16        -1.1813    2.3749    4.7346 C.ar      1 <0>        -0.0867
     24 C17        -1.1879    2.1313    3.3631 C.ar      1 <0>         0.0775
     25 N3         -0.2376    1.6220    2.5210 N.pl3     1 <0>        -0.5596
     26 H3          0.6497    1.3358    2.7887 H         1 <0>         0.4165
     27 O4         -4.5542    3.7182    5.1302 O.3       1 <0>        -0.3170
     28 C18        -4.4709    3.9405    6.5394 C.3       1 <0>         0.0245
     29 C19        -2.8314    2.1334   -0.0276 C.3       1 <0>        -0.0676
     30 C20        -2.1687    1.2579   -1.1001 C.3       1 <0>         0.0009
     31 H4          2.3303    5.3979   -2.7302 H         1 <0>         0.0627
     32 H5          3.8179    4.9608   -3.6045 H         1 <0>         0.0685
     33 H6          2.9332    3.7239   -2.6793 H         1 <0>         0.0392
     34 H7          4.3430    6.1603   -1.4988 H         1 <0>         0.0965
     35 H8          4.9459    4.4864   -1.4479 H         1 <0>         0.0852
     36 H9          4.2159    6.3666    0.9453 H         1 <0>         0.0904
     37 H10         3.4063    5.1142    1.9171 H         1 <0>         0.0627
     38 H11         4.9355    4.7446    1.0846 H         1 <0>         0.0786
     39 H12         5.9201    2.3055    0.0371 H         1 <0>         0.4482
     40 H13         3.0795   -1.1084    0.2561 H         1 <0>         0.4314
     41 H14        -4.3651    3.1855    2.5638 H         1 <0>         0.1423
     42 H15        -2.3581    3.1073    6.3480 H         1 <0>         0.1360
     43 H16        -0.3144    2.1573    5.3409 H         1 <0>         0.1357
     44 H17        -3.6591    4.6366    6.7501 H         1 <0>         0.0568
     45 H18        -5.4113    4.3598    6.8972 H         1 <0>         0.1046
     46 H19        -4.2790    2.9945    7.0457 H         1 <0>         0.0572
     47 H20        -3.8378    1.7677    0.1763 H         1 <0>         0.1195
     48 H21        -2.8768    3.1666   -0.3717 H         1 <0>         0.0995
     49 H22        -2.2931    0.2069   -0.8393 H         1 <0>         0.1328
     50 H23        -2.6356    1.4505   -2.0660 H         1 <0>         0.1391
     51 N4         -0.7270    1.5831   -1.1874 N.4       1 <0>        -0.5136
     52 H24        -0.3310    1.1422   -2.0258 H         1 <0>         0.4342
     53 H25        -0.6132    2.6016   -1.2501 H         1 <0>         0.4392
@<TRIPOS>BOND
     1    1    2 1
     2    1   31 1
     3    1   32 1
     4    1   33 1
     5    2    3 1
     6    2   34 1
     7    2   35 1
     8    3    4 1
     9    3    5 1
    10    3    6 1
    11    5   36 1
    12    5   37 1
    13    5   38 1
    14    6   12 1
    15    6    7 am
    16    7    8 2
    17    7    9 1
    18    9   10 2
    19    9   15 1
    20   10   11 1
    21   10   14 1
    22   11   12 2
    23   12   13 1
    24   13   39 1
    25   14   40 1
    26   15   16 1
    27   15   17 1
    28   15   51 1
    29   17   25 1
    30   17   18 2
    31   18   19 1
    32   18   29 1
    33   19   24 ar
    34   19   20 ar
    35   20   21 ar
    36   20   41 1
    37   21   22 ar
    38   21   27 1
    39   22   23 ar
    40   22   42 1
    41   23   24 ar
    42   23   43 1
    43   24   25 1
    44   25   26 1
    45   27   28 1
    46   28   44 1
    47   28   45 1
    48   28   46 1
    49   29   30 1
    50   29   47 1
    51   29   48 1
    52   30   49 1
    53   30   50 1
    54   30   51 1
    55   51   52 1
    56   51   53 1
@<TRIPOS>MOLECULE
ZINC34750161
   57    60     0     0     0
SMALL
USER_CHARGES

@<TRIPOS>ATOM
      1 C1          0.0007    1.4867    0.0235 C.3       1 <0>        -0.1839
      2 C2          0.0078   -0.0433    0.0124 C.3       1 <0>         0.1063
      3 C3         -1.4343   -0.5577    0.0033 C.3       1 <0>        -0.0744
      4 C4         -2.0571   -0.2506    1.3635 C.2       1 <0>        -0.0808
      5 C5         -1.2513    0.0350    2.4135 C.2       1 <0>        -0.1815
      6 S1         -2.3467    0.3252    3.7769 S.3       1 <0>         0.1674
      7 C6         -3.8799    0.0654    2.9430 C.ar      1 <0>         0.1203
      8 C7         -3.4866   -0.2427    1.6150 C.ar      1 <0>        -0.1880
      9 C8         -4.5280   -0.5085    0.6793 C.ar      1 <0>         0.4840
     10 N1         -5.7696   -0.4392    1.1528 N.ar      1 <0>        -0.5251
     11 C9         -6.0654   -0.1448    2.4101 C.ar      1 <0>         0.3084
     12 N2         -5.1374    0.1136    3.3345 N.ar      1 <0>        -0.4643
     13 S2         -7.7616   -0.0922    2.8843 S.3       1 <0>         0.1095
     14 C10        -7.7116    0.3375    4.6460 C.3       1 <0>        -0.1608
     15 C11        -9.1172    0.4163    5.1838 C.2       1 <0>         0.5383
     16 O1        -10.0598    0.2036    4.4509 O.2       1 <0>        -0.5257
     17 N3         -9.3267    0.7232    6.4794 N.am      1 <0>        -0.8424
     18 N4         -4.2641   -0.8195   -0.6423 N.pl3     1 <0>        -0.6560
     19 C12        -3.9611   -2.2006   -1.0484 C.3       1 <0>         0.1200
     20 C13        -4.8601   -2.5665   -2.2340 C.3       1 <0>        -0.0235
     21 N5         -4.6922   -1.5707   -3.2999 N.4       1 <0>        -0.3676
     22 C14        -5.1628   -0.2590   -2.8375 C.3       1 <0>        -0.0338
     23 C15        -4.2844    0.2204   -1.6826 C.3       1 <0>         0.1243
     24 C16        -5.4693   -1.9806   -4.4773 C.3       1 <0>        -0.0335
     25 C17        -5.2019   -1.0265   -5.6127 C.2       1 <0>         0.5090
     26 O2         -4.4391   -0.0966   -5.4565 O.2       1 <0>        -0.5292
     27 N6         -5.8105   -1.2065   -6.8017 N.am      1 <0>        -0.8238
     28 C18         0.2444    0.0854    2.3936 C.3       1 <0>         0.1371
     29 O3          0.6933   -0.5228    1.1724 O.3       1 <0>        -0.3537
     30 C19         0.7282   -0.5382   -1.2434 C.3       1 <0>        -0.1404
     31 H1          1.0266    1.8548    0.0186 H         1 <0>         0.0727
     32 H2         -0.5214    1.8540   -0.8600 H         1 <0>         0.0682
     33 H3         -0.5083    1.8411    0.9198 H         1 <0>         0.0630
     34 H4         -1.9992   -0.0554   -0.7819 H         1 <0>         0.0871
     35 H5         -1.4400   -1.6339   -0.1694 H         1 <0>         0.0850
     36 H6         -7.1565   -0.4262    5.1906 H         1 <0>         0.1290
     37 H7         -7.2202    1.3024    4.7708 H         1 <0>         0.1289
     38 H8         -8.5728    0.8933    7.0655 H         1 <0>         0.4070
     39 H9        -10.2314    0.7739    6.8256 H         1 <0>         0.4126
     40 H10        -2.9150   -2.2738   -1.3456 H         1 <0>         0.0933
     41 H11        -4.1571   -2.8781   -0.2173 H         1 <0>         0.1201
     42 H12        -4.5829   -3.5515   -2.6098 H         1 <0>         0.1443
     43 H13        -5.9008   -2.5805   -1.9103 H         1 <0>         0.1394
     44 H14        -5.1088    0.4565   -3.6580 H         1 <0>         0.1567
     45 H15        -6.1944   -0.3428   -2.4955 H         1 <0>         0.1345
     46 H16        -4.6940    1.1427   -1.2707 H         1 <0>         0.1185
     47 H17        -3.2714    0.3957   -2.0450 H         1 <0>         0.0922
     48 H18        -5.1769   -2.9882   -4.7729 H         1 <0>         0.1635
     49 H19        -6.5317   -1.9672   -4.2340 H         1 <0>         0.1619
     50 H20        -6.4206   -1.9502   -6.9266 H         1 <0>         0.4144
     51 H21        -5.6384   -0.5924   -7.5325 H         1 <0>         0.4246
     52 H22         0.5786    1.1222    2.4333 H         1 <0>         0.0878
     53 H23         0.6429   -0.4637    3.2467 H         1 <0>         0.1209
     54 H24         1.7538   -0.1691   -1.2432 H         1 <0>         0.0728
     55 H25         0.7343   -1.6281   -1.2531 H         1 <0>         0.0661
     56 H26         0.2097   -0.1699   -2.1286 H         1 <0>         0.0710
     57 H27        -3.7165   -1.5079   -3.5492 H         1 <0>         0.4287
@<TRIPOS>BOND
     1    1    2 1
     2    1   31 1
     3    1   32 1
     4    1   33 1
     5    2   29 1
     6    2    3 1
     7    2   30 1
     8    3    4 1
     9    3   34 1
    10    3   35 1
    11    4    8 1
    12    4    5 2
    13    5    6 1
    14    5   28 1
    15    6    7 1
    16    7   12 ar
    17    7    8 ar
    18    8    9 ar
    19    9   10 ar
    20    9   18 1
    21   10   11 ar
    22   11   12 ar
    23   11   13 1
    24   13   14 1
    25   14   15 1
    26   14   36 1
    27   14   37 1
    28   15   16 2
    29   15   17 am
    30   17   38 1
    31   17   39 1
    32   18   23 1
    33   18   19 1
    34   19   20 1
    35   19   40 1
    36   19   41 1
    37   20   21 1
    38   20   42 1
    39   20   43 1
    40   21   22 1
    41   21   24 1
    42   21   57 1
    43   22   23 1
    44   22   44 1
    45   22   45 1
    46   23   46 1
    47   23   47 1
    48   24   25 1
    49   24   48 1
    50   24   49 1
    51   25   26 2
    52   25   27 am
    53   27   50 1
    54   27   51 1
    55   28   29 1
    56   28   52 1
    57   28   53 1
    58   30   54 1
    59   30   55 1
    60   30   56 1
@<TRIPOS>MOLECULE
ZINC43147450
   55    57     0     0     0
SMALL
USER_CHARGES

@<TRIPOS>ATOM
      1 C1          0.0804    1.2309    0.8007 C.3       1 <0>         0.0837
      2 N1          0.1644   -0.2290    0.8895 N.am      1 <0>        -0.3625
      3 C2         -0.9775   -0.9244    1.0686 C.2       1 <0>         0.5164
      4 O1         -2.0486   -0.3520    1.1536 O.2       1 <0>        -0.4826
      5 C3         -0.8985   -2.3890    1.1583 C.ar      1 <0>        -0.1375
      6 C4         -2.0165   -3.1963    1.3427 C.ar      1 <0>        -0.0510
      7 C5         -1.8575   -4.5638    1.4170 C.ar      1 <0>        -0.1057
      8 C6         -0.5978   -5.1387    1.3105 C.ar      1 <0>        -0.0806
      9 C7          0.5225   -4.3558    1.1281 C.ar      1 <0>        -0.0952
     10 C8          0.3843   -2.9743    1.0494 C.ar      1 <0>        -0.0417
     11 C9          1.5279   -2.0683    0.8559 C.2       1 <0>         0.0663
     12 N2          1.3162   -0.7764    0.7879 N.2       1 <0>        -0.2071
     13 C10         2.8965   -2.6085    0.7339 C.2       1 <0>         0.6043
     14 O2          3.0840   -3.8083    0.7932 O.2       1 <0>        -0.4956
     15 N3          3.9380   -1.7715    0.5569 N.am      1 <0>        -0.5204
     16 N4          5.2367   -2.2841    0.4412 N.am      1 <0>        -0.5191
     17 C11         6.2782   -1.4472    0.2641 C.2       1 <0>         0.7202
     18 O3          7.4053   -1.8920    0.1637 O.2       1 <0>        -0.5435
     19 N5          6.0703   -0.1172    0.1984 N.am      1 <0>        -0.7622
     20 C12         7.2024    0.7925    0.0060 C.3       1 <0>         0.1252
     21 C13         6.6858    2.2247   -0.1454 C.3       1 <0>         0.0372
     22 C14         5.8254    2.3441   -1.4202 C.3       1 <0>        -0.1377
     23 C15         6.1652    3.7488   -1.9776 C.3       1 <0>        -0.1379
     24 C16         7.6831    3.8709   -1.6943 C.3       1 <0>        -0.1274
     25 C17         7.8669    3.1954   -0.3196 C.3       1 <0>        -0.1342
     26 N6          5.8947    2.6012    1.0338 N.4       1 <0>        -0.3806
     27 C18         6.7459    2.5534    2.2301 C.3       1 <0>        -0.0605
     28 C19         5.3723    3.9629    0.8586 C.3       1 <0>        -0.0609
     29 H1          1.0781    1.6439    0.6526 H         1 <0>         0.0939
     30 H2         -0.5560    1.5077   -0.0398 H         1 <0>         0.0902
     31 H3         -0.3437    1.6272    1.7234 H         1 <0>         0.0896
     32 H4         -2.9991   -2.7561    1.4270 H         1 <0>         0.1463
     33 H5         -2.7221   -5.1949    1.5601 H         1 <0>         0.1420
     34 H6         -0.4944   -6.2120    1.3717 H         1 <0>         0.1413
     35 H7          1.4983   -4.8114    1.0470 H         1 <0>         0.1695
     36 H8          3.7883   -0.8143    0.5096 H         1 <0>         0.4197
     37 H9          5.3863   -3.2413    0.4885 H         1 <0>         0.4539
     38 H10         5.1711    0.2377    0.2786 H         1 <0>         0.3835
     39 H11         7.8656    0.7348    0.8691 H         1 <0>         0.0986
     40 H12         7.7495    0.5068   -0.8924 H         1 <0>         0.1204
     41 H13         6.0994    1.5720   -2.1391 H         1 <0>         0.1155
     42 H14         4.7659    2.2779   -1.1730 H         1 <0>         0.0868
     43 H15         5.9669    3.7979   -3.0483 H         1 <0>         0.0937
     44 H16         5.6095    4.5205   -1.4449 H         1 <0>         0.0798
     45 H17         8.2571    3.3453   -2.4574 H         1 <0>         0.0874
     46 H18         7.9792    4.9188   -1.6471 H         1 <0>         0.0891
     47 H19         7.8526    3.9464    0.4703 H         1 <0>         0.0932
     48 H20         8.8081    2.6462   -0.2963 H         1 <0>         0.1091
     49 H21         6.1854    2.9205    3.0898 H         1 <0>         0.1297
     50 H22         7.0589    1.5253    2.4125 H         1 <0>         0.1259
     51 H23         7.6252    3.1789    2.0757 H         1 <0>         0.1296
     52 H24         4.7407    3.9984   -0.0290 H         1 <0>         0.1297
     53 H25         4.7854    4.2422    1.7336 H         1 <0>         0.1278
     54 H26         6.2032    4.6585    0.7413 H         1 <0>         0.1289
     55 H27         5.1255    1.9572    1.1424 H         1 <0>         0.4153
@<TRIPOS>BOND
     1    1    2 1
     2    1   29 1
     3    1   30 1
     4    1   31 1
     5    2   12 1
     6    2    3 am
     7    3    4 2
     8    3    5 1
     9    5   10 ar
    10    5    6 ar
    11    6    7 ar
    12    6   32 1
    13    7    8 ar
    14    7   33 1
    15    8    9 ar
    16    8   34 1
    17    9   10 ar
    18    9   35 1
    19   10   11 1
    20   11   12 2
    21   11   13 1
    22   13   14 2
    23   13   15 am
    24   15   16 1
    25   15   36 1
    26   16   17 am
    27   16   37 1
    28   17   18 2
    29   17   19 am
    30   19   20 1
    31   19   38 1
    32   20   21 1
    33   20   39 1
    34   20   40 1
    35   21   25 1
    36   21   22 1
    37   21   26 1
    38   22   23 1
    39   22   41 1
    40   22   42 1
    41   23   24 1
    42   23   43 1
    43   23   44 1
    44   24   25 1
    45   24   45 1
    46   24   46 1
    47   25   47 1
    48   25   48 1
    49   26   27 1
    50   26   28 1
    51   26   55 1
    52   27   49 1
    53   27   50 1
    54   27   51 1
    55   28   52 1
    56   28   53 1
    57   28   54 1
@<TRIPOS>MOLECULE
ZINC63216934
   49    53     0     0     0
SMALL
USER_CHARGES

@<TRIPOS>ATOM
      1 C1         -0.0787    1.2402   -1.1180 C.ar      1 <0>        -0.1514
      2 C2          1.0867    1.9618   -1.3861 C.ar      1 <0>         0.0515
      3 C3          2.3082    1.3737   -1.3860 C.ar      1 <0>        -0.2074
      4 C4          2.4236   -0.0129   -1.1073 C.ar      1 <0>         0.3165
      5 N1          3.4752   -0.8058   -1.0476 N.pl3     1 <0>        -0.6015
      6 C5          3.0376   -2.1659   -0.7190 C.3       1 <0>         0.0737
      7 C6          1.5326   -2.0990   -0.5811 C.2       1 <0>         0.1498
      8 C7          1.1923   -0.7687   -0.8250 C.ar      1 <0>        -0.1418
      9 C8         -0.0446   -0.0890   -0.8431 C.ar      1 <0>        -0.0061
     10 C9          0.6608   -3.1553   -0.2726 C.2       1 <0>         0.1442
     11 N2         -0.6577   -3.0828   -0.1611 N.2       1 <0>        -0.1682
     12 N3         -1.1331   -4.2407    0.1308 N.2       1 <0>        -0.2629
     13 C10        -0.1516   -5.1258    0.2245 C.2       1 <0>         0.1905
     14 N4          1.0140   -4.4715   -0.0331 N.pl3     1 <0>        -0.4089
     15 C11         2.3632   -5.0421   -0.0503 C.3       1 <0>         0.0105
     16 C12         2.4853   -6.5643   -0.1458 C.3       1 <0>        -0.1578
     17 C13         2.8032   -5.8524    1.1707 C.3       1 <0>        -0.1595
     18 S1         -0.3241   -6.8375    0.6050 S.3       1 <0>         0.1516
     19 C14        -2.1111   -7.0605    0.8237 C.3       1 <0>        -0.1749
     20 C15        -2.4003   -8.5012    1.1577 C.2       1 <0>         0.5301
     21 O1         -1.4906   -9.2991    1.2402 O.2       1 <0>        -0.4896
     22 N5         -3.6700   -8.9031    1.3649 N.am      1 <0>        -0.5993
     23 C16        -3.9362  -10.2288    1.6723 C.2       1 <0>         0.0694
     24 C17        -5.1693  -10.8181    1.9100 C.2       1 <0>        -0.2577
     25 C18        -5.1628  -12.2313    2.2114 C.2       1 <0>        -0.1044
     26 C19        -3.9536  -12.8220    2.2280 C.2       1 <0>        -0.2424
     27 S2         -2.8415  -11.4898    1.8349 S.3       1 <0>         0.2894
     28 C20        -6.4151  -10.0466    1.8586 C.2       1 <0>         0.5906
     29 O2         -6.3842   -8.8573    1.6020 O.2       1 <0>        -0.5663
     30 N6         -7.5944  -10.6545    2.0954 N.am      1 <0>        -0.8453
     31 H1         -1.0293    1.7527   -1.1253 H         1 <0>         0.1575
     32 H2          1.0127    3.0178   -1.5998 H         1 <0>         0.1616
     33 H3          3.1909    1.9588   -1.5979 H         1 <0>         0.1612
     34 H4          3.3108   -2.8520   -1.5207 H         1 <0>         0.1699
     35 H5          3.4866   -2.4879    0.2206 H         1 <0>         0.1721
     36 H6         -0.9603   -0.6240   -0.6388 H         1 <0>         0.1646
     37 H7          3.1204   -4.4434   -0.5565 H         1 <0>         0.1553
     38 H8          1.5618   -7.1411   -0.1958 H         1 <0>         0.1213
     39 H9          3.3229   -6.9672   -0.7151 H         1 <0>         0.1370
     40 H10         3.8499   -5.7871    1.4675 H         1 <0>         0.1312
     41 H11         2.0888   -5.9609    1.9868 H         1 <0>         0.1176
     42 H12        -2.4602   -6.4222    1.6353 H         1 <0>         0.1424
     43 H13        -2.6264   -6.7907   -0.0982 H         1 <0>         0.1429
     44 H14        -4.3976   -8.2650    1.2989 H         1 <0>         0.4378
     45 H15        -6.0716  -12.7794    2.4113 H         1 <0>         0.1464
     46 H16        -3.7159  -13.8565    2.4275 H         1 <0>         0.1933
     47 H17        -7.6191  -11.6024    2.2998 H         1 <0>         0.4034
     48 H18        -8.4186  -10.1441    2.0614 H         1 <0>         0.4070
     49 H19         4.3937   -0.5325   -1.1980 H         1 <0>         0.4554
@<TRIPOS>BOND
     1    1    9 ar
     2    1    2 ar
     3    1   31 1
     4    2    3 ar
     5    2   32 1
     6    3    4 ar
     7    3   33 1
     8    4    8 ar
     9    4    5 2
    10    5    6 1
    11    5   49 1
    12    6    7 1
    13    6   34 1
    14    6   35 1
    15    7    8 2
    16    7   10 1
    17    8    9 ar
    18    9   36 1
    19   10   14 1
    20   10   11 2
    21   11   12 1
    22   12   13 2
    23   13   14 1
    24   13   18 1
    25   14   15 1
    26   15   17 1
    27   15   16 1
    28   15   37 1
    29   16   17 1
    30   16   38 1
    31   16   39 1
    32   17   40 1
    33   17   41 1
    34   18   19 1
    35   19   20 1
    36   19   42 1
    37   19   43 1
    38   20   21 2
    39   20   22 am
    40   22   23 1
    41   22   44 1
    42   23   27 1
    43   23   24 2
    44   24   25 1
    45   24   28 1
    46   25   26 2
    47   25   45 1
    48   26   27 1
    49   26   46 1
    50   28   29 2
    51   28   30 am
    52   30   47 1
    53   30   48 1
@<TRIPOS>MOLECULE
ZINC66197011
   59    60     0     0     0
SMALL
USER_CHARGES

@<TRIPOS>ATOM
      1 C1         -0.8676   -2.5471   -0.9006 C.3       1 <0>        -0.1747
      2 C2          0.5555   -1.9981   -1.0192 C.3       1 <0>        -0.1500
      3 C3          0.5011   -0.4889   -1.2649 C.3       1 <0>         0.0248
      4 H1         -0.0475   -0.0085   -0.4547 H         1 <0>         0.1393
      5 C4          1.9241    0.0705   -1.3192 C.3       1 <0>        -0.1854
      6 N1         -0.1780   -0.2246   -2.5404 N.4       1 <0>        -0.3796
      7 C5          0.5559   -0.8804   -3.6309 C.3       1 <0>        -0.0660
      8 C6         -0.2215    1.2239   -2.7810 C.3       1 <0>        -0.0255
      9 C7         -1.0722    1.5097   -4.0201 C.3       1 <0>         0.1158
     10 N2         -1.1156    2.9542   -4.2601 N.am      1 <0>        -0.7483
     11 C8         -1.8118    3.4431   -5.3055 C.2       1 <0>         0.7140
     12 O1         -2.4788    2.6957   -5.9946 O.2       1 <0>        -0.5746
     13 N3         -1.7685    4.7604   -5.5871 N.am      1 <0>        -0.6216
     14 C9         -0.8764    5.6565   -4.8381 C.3       1 <0>         0.0947
     15 C10         0.0224    6.3986   -5.8350 C.3       1 <0>         0.1030
     16 N4         -0.8214    6.9646   -6.8968 N.pl3     1 <0>        -0.6226
     17 C11        -1.7135    6.0685   -7.6458 C.3       1 <0>         0.1013
     18 C12        -2.6082    5.3254   -6.6528 C.3       1 <0>         0.1112
     19 C13        -0.7766    8.3298   -7.1887 C.ar      1 <0>         0.2691
     20 C14         0.1601    9.1445   -6.5653 C.ar      1 <0>        -0.2190
     21 C15         0.2020   10.4938   -6.8565 C.ar      1 <0>         0.0316
     22 C16        -0.6874   11.0342   -7.7672 C.ar      1 <0>        -0.7276
     23 C17        -1.6211   10.2260   -8.3895 C.ar      1 <0>         0.0326
     24 C18        -1.6648    8.8748   -8.1072 C.ar      1 <0>        -0.2169
     25 S1         -0.6312   12.7565   -8.1349 S.o2      1 <0>         2.7031
     26 O2         -1.9226   13.1129   -8.6088 O.2       1 <0>        -0.9661
     27 O3         -0.0285   13.3913   -7.0156 O.2       1 <0>        -0.9672
     28 N5          0.4105   12.9517   -9.4074 N.pl3     1 <0>        -1.2514
     29 H2         -1.3481   -2.1238   -0.0185 H         1 <0>         0.0739
     30 H3         -1.4369   -2.2761   -1.7898 H         1 <0>         0.0487
     31 H4         -0.8318   -3.6327   -0.8091 H         1 <0>         0.0850
     32 H5          1.0996   -2.1965   -0.0957 H         1 <0>         0.1131
     33 H6          1.0641   -2.4837   -1.8520 H         1 <0>         0.0905
     34 H7          1.8854    1.1457   -1.4942 H         1 <0>         0.0808
     35 H8          2.4280   -0.1256   -0.3728 H         1 <0>         0.1070
     36 H9          2.4728   -0.4099   -2.1293 H         1 <0>         0.0837
     37 H10         0.5882   -1.9552   -3.4524 H         1 <0>         0.1306
     38 H11         0.0520   -0.6843   -4.5774 H         1 <0>         0.1276
     39 H12         1.5721   -0.4882   -3.6723 H         1 <0>         0.1278
     40 H13        -0.6595    1.7228   -1.9165 H         1 <0>         0.1376
     41 H14         0.7904    1.5961   -2.9413 H         1 <0>         0.1385
     42 H15        -0.6342    1.0107   -4.8846 H         1 <0>         0.0889
     43 H16        -2.0841    1.1374   -3.8599 H         1 <0>         0.0894
     44 H17        -0.6433    3.5589   -3.6666 H         1 <0>         0.4020
     45 H18        -1.4700    6.3763   -4.2745 H         1 <0>         0.0832
     46 H19        -0.2602    5.0719   -4.1549 H         1 <0>         0.0851
     47 H20         0.5526    7.2012   -5.3222 H         1 <0>         0.1028
     48 H21         0.7395    5.7023   -6.2696 H         1 <0>         0.0723
     49 H22        -2.3297    6.6530   -8.3290 H         1 <0>         0.1051
     50 H23        -1.1200    5.3487   -8.2094 H         1 <0>         0.0746
     51 H24        -3.1354    4.5223   -7.1677 H         1 <0>         0.1105
     52 H25        -3.3279    6.0211   -6.2214 H         1 <0>         0.0785
     53 H26         0.8545    8.7232   -5.8535 H         1 <0>         0.1323
     54 H27         0.9300   11.1278   -6.3723 H         1 <0>         0.1436
     55 H28        -2.3143   10.6512   -9.1003 H         1 <0>         0.1445
     56 H29        -2.3913    8.2434   -8.5970 H         1 <0>         0.1349
     57 H30         0.8510   12.1800   -9.7963 H         1 <0>         0.4157
     58 H31         0.5800   13.8378   -9.7638 H         1 <0>         0.4213
     59 H32        -1.1186   -0.5876   -2.5021 H         1 <0>         0.4262
@<TRIPOS>BOND
     1    1    2 1
     2    1   29 1
     3    1   30 1
     4    1   31 1
     5    2    3 1
     6    2   32 1
     7    2   33 1
     8    3    4 1
     9    3    5 1
    10    3    6 1
    11    5   34 1
    12    5   35 1
    13    5   36 1
    14    6    7 1
    15    6    8 1
    16    6   59 1
    17    7   37 1
    18    7   38 1
    19    7   39 1
    20    8    9 1
    21    8   40 1
    22    8   41 1
    23    9   10 1
    24    9   42 1
    25    9   43 1
    26   10   11 am
    27   10   44 1
    28   11   12 2
    29   11   13 am
    30   13   18 1
    31   13   14 1
    32   14   15 1
    33   14   45 1
    34   14   46 1
    35   15   16 1
    36   15   47 1
    37   15   48 1
    38   16   17 1
    39   16   19 1
    40   17   18 1
    41   17   49 1
    42   17   50 1
    43   18   51 1
    44   18   52 1
    45   19   24 ar
    46   19   20 ar
    47   20   21 ar
    48   20   53 1
    49   21   22 ar
    50   21   54 1
    51   22   23 ar
    52   22   25 1
    53   23   24 ar
    54   23   55 1
    55   24   56 1
    56   25   26 2
    57   25   27 2
    58   25   28 1
    59   28   57 1
    60   28   58 1
@<TRIPOS>MOLECULE
ZINC36266263
   42    44     0     0     0
SMALL
USER_CHARGES

@<TRIPOS>ATOM
      1 C1         -0.5089    1.7319    0.0051 C.3       1 <0>        -0.1909
      2 C2         -0.3192    0.2142   -0.0329 C.3       1 <0>         0.1381
      3 H1         -1.2855   -0.2892   -0.0016 H         1 <0>         0.0751
      4 C3          0.4633   -0.1997   -1.3028 C.3       1 <0>        -0.1274
      5 C4          1.0834   -1.5522   -0.8724 C.3       1 <0>        -0.1124
      6 H2          1.9785   -1.8061   -1.4403 H         1 <0>         0.1419
      7 C5          0.0012   -2.6422   -0.9503 C.3       1 <0>        -0.0038
      8 N1         -0.3729   -2.9851    0.4386 N.4       1 <0>        -0.5144
      9 C6          0.8160   -2.6649    1.2678 C.3       1 <0>        -0.0327
     10 C7          1.3655   -1.3448    0.6419 C.3       1 <0>         0.1411
     11 H3          2.4237   -1.1848    0.8483 H         1 <0>         0.1503
     12 N2          0.5252   -0.2257    1.0918 N.pl3     1 <0>        -1.0145
     13 S1          0.5283    0.4347    2.6105 S.o2      1 <0>         2.7232
     14 O1          1.7967    0.1395    3.1790 O.2       1 <0>        -0.9430
     15 O2          0.0443    1.7639    2.4763 O.2       1 <0>        -0.9259
     16 C8         -0.6668   -0.4428    3.5626 C.2       1 <0>        -0.7638
     17 C9         -2.0218   -0.1190    3.6837 C.2       1 <0>        -0.0545
     18 C10        -2.5900   -1.0593    4.5166 C.2       1 <0>        -0.0427
     19 N3         -1.5967   -1.9352    4.8919 N.pl3     1 <0>        -0.3887
     20 C11        -0.4373   -1.5539    4.3024 C.2       1 <0>         0.1187
     21 C12        -1.7658   -3.0908    5.7764 C.3       1 <0>         0.0486
     22 C13        -3.9966   -1.1156    4.9285 C.2       1 <0>         0.5889
     23 O3         -4.4011   -2.0567    5.5855 O.2       1 <0>        -0.5379
     24 N4         -4.8413   -0.1251    4.5792 N.am      1 <0>        -0.8358
     25 H4          0.4643    2.2209   -0.0393 H         1 <0>         0.0719
     26 H5         -1.1117    2.0442   -0.8477 H         1 <0>         0.0767
     27 H6         -1.0143    2.0120    0.9294 H         1 <0>         0.1026
     28 H7         -0.2104   -0.3321   -2.1493 H         1 <0>         0.1010
     29 H8          1.2404    0.5283   -1.5357 H         1 <0>         0.1025
     30 H9         -0.8691   -2.2634   -1.4862 H         1 <0>         0.1388
     31 H10         0.3972   -3.5228   -1.4561 H         1 <0>         0.1411
     32 H11        -1.1625   -2.4305    0.7334 H         1 <0>         0.4291
     33 H12         0.5277   -2.5080    2.3072 H         1 <0>         0.1271
     34 H13         1.5619   -3.4560    1.1908 H         1 <0>         0.1562
     35 H14        -2.5277    0.7113    3.2136 H         1 <0>         0.1649
     36 H15         0.5147   -2.0530    4.4077 H         1 <0>         0.1902
     37 H16        -1.9536   -3.9821    5.1777 H         1 <0>         0.0889
     38 H17        -0.8598   -3.2331    6.3655 H         1 <0>         0.0966
     39 H18        -2.6097   -2.9170    6.4439 H         1 <0>         0.1159
     40 H19        -4.5380    0.5873    3.9949 H         1 <0>         0.4061
     41 H20        -5.7523   -0.1247    4.9121 H         1 <0>         0.4176
     42 H21        -0.5910   -3.9679    0.5077 H         1 <0>         0.4354
@<TRIPOS>BOND
     1    1    2 1
     2    1   25 1
     3    1   26 1
     4    1   27 1
     5    2    3 1
     6    2   12 1
     7    2    4 1
     8    4    5 1
     9    4   28 1
    10    4   29 1
    11    5    6 1
    12    5   10 1
    13    5    7 1
    14    7    8 1
    15    7   30 1
    16    7   31 1
    17    8    9 1
    18    8   32 1
    19    8   42 1
    20    9   10 1
    21    9   33 1
    22    9   34 1
    23   10   11 1
    24   10   12 1
    25   12   13 1
    26   13   14 2
    27   13   15 2
    28   13   16 1
    29   16   20 2
    30   16   17 1
    31   17   18 2
    32   17   35 1
    33   18   19 1
    34   18   22 1
    35   19   20 1
    36   19   21 1
    37   20   36 1
    38   21   37 1
    39   21   38 1
    40   21   39 1
    41   22   23 2
    42   22   24 am
    43   24   40 1
    44   24   41 1
@<TRIPOS>MOLECULE
ZINC47598187
   47    48     0     0     0
SMALL
USER_CHARGES

@<TRIPOS>ATOM
      1 C1          3.2739   -2.1486    1.7830 C.3       1 <0>        -0.1530
      2 C2          2.7625   -1.7457    0.3984 C.3       1 <0>         0.0763
      3 H1          3.5113   -1.9957   -0.3532 H         1 <0>         0.0715
      4 C3          1.4613   -2.4970    0.0946 C.3       1 <0>         0.0652
      5 N1          0.8936   -1.9570   -1.1510 N.pl3     1 <0>        -0.5887
      6 C4          0.7441   -0.4977   -1.2674 C.3       1 <0>         0.0727
      7 C5          2.0803    0.1562   -0.8972 C.3       1 <0>         0.0445
      8 O1          2.5116   -0.3385    0.3728 O.3       1 <0>        -0.3609
      9 C6          0.5102   -2.8004   -2.1873 C.ar      1 <0>         0.4490
     10 C7         -0.1344   -2.2739   -3.3022 C.ar      1 <0>        -0.1968
     11 C8         -0.5103   -3.1245   -4.3259 C.ar      1 <0>         0.0539
     12 C9         -0.2279   -4.4784   -4.2000 C.ar      1 <0>        -0.1579
     13 C10         0.4146   -4.9325   -3.0659 C.ar      1 <0>         0.1676
     14 N2          0.7666   -4.0969   -2.1070 N.ar      1 <0>        -0.5067
     15 C11        -0.6194   -5.4422   -5.2904 C.3       1 <0>         0.1841
     16 N3          0.4753   -5.5568   -6.2571 N.am      1 <0>        -0.7526
     17 C12         0.3488   -6.3689   -7.3253 C.2       1 <0>         0.7059
     18 O2         -0.6739   -7.0065   -7.4865 O.2       1 <0>        -0.5772
     19 N4          1.3559   -6.4743   -8.2147 N.am      1 <0>        -0.7405
     20 C13         1.2184   -7.3571   -9.3757 C.3       1 <0>         0.1383
     21 C14         2.4934   -7.2929  -10.2191 C.3       1 <0>        -0.1337
     22 C15         2.3498   -8.2148  -11.4316 C.3       1 <0>         0.0782
     23 O3          3.5406   -8.1548  -12.2193 O.3       1 <0>        -0.5755
     24 H2          2.5246   -1.8982    2.5340 H         1 <0>         0.0748
     25 H3          3.4632   -3.2218    1.8023 H         1 <0>         0.0795
     26 H4          4.1981   -1.6126    1.9990 H         1 <0>         0.0822
     27 H5          1.6710   -3.5596   -0.0280 H         1 <0>         0.0871
     28 H6          0.7551   -2.3536    0.9123 H         1 <0>         0.1122
     29 H7          0.4788   -0.2364   -2.2918 H         1 <0>         0.1123
     30 H8         -0.0343   -0.1530   -0.5867 H         1 <0>         0.1073
     31 H9          2.8263   -0.0863   -1.6540 H         1 <0>         0.0657
     32 H10         1.9537    1.2374   -0.8428 H         1 <0>         0.1278
     33 H11        -0.3388   -1.2154   -3.3672 H         1 <0>         0.1823
     34 H12        -1.0124   -2.7444   -5.2033 H         1 <0>         0.1776
     35 H13         0.6358   -5.9846   -2.9638 H         1 <0>         0.2088
     36 H14        -0.8233   -6.4203   -4.8547 H         1 <0>         0.0933
     37 H15        -1.5133   -5.0759   -5.7953 H         1 <0>         0.0980
     38 H16         1.2911   -5.0481   -6.1285 H         1 <0>         0.3972
     39 H17         2.1718   -5.9657   -8.0861 H         1 <0>         0.3985
     40 H18         1.0581   -8.3807   -9.0369 H         1 <0>         0.0731
     41 H19         0.3682   -7.0362   -9.9775 H         1 <0>         0.0735
     42 H20         2.6537   -6.2693  -10.5579 H         1 <0>         0.0777
     43 H21         3.3437   -7.6138   -9.6173 H         1 <0>         0.0773
     44 H22         2.1895   -9.2384  -11.0928 H         1 <0>         0.0513
     45 H23         1.4996   -7.8939  -12.0334 H         1 <0>         0.0516
     46 H24         3.5202   -8.7160  -13.0065 H         1 <0>         0.3877
     47 H25         1.2206   -4.4416   -1.3222 H         1 <0>         0.4396
@<TRIPOS>BOND
     1    1    2 1
     2    1   24 1
     3    1   25 1
     4    1   26 1
     5    2    3 1
     6    2    8 1
     7    2    4 1
     8    4    5 1
     9    4   27 1
    10    4   28 1
    11    5    6 1
    12    5    9 1
    13    6    7 1
    14    6   29 1
    15    6   30 1
    16    7    8 1
    17    7   31 1
    18    7   32 1
    19    9   14 ar
    20    9   10 ar
    21   10   11 ar
    22   10   33 1
    23   11   12 ar
    24   11   34 1
    25   12   13 ar
    26   12   15 1
    27   13   14 ar
    28   13   35 1
    29   14   47 1
    30   15   16 1
    31   15   36 1
    32   15   37 1
    33   16   17 am
    34   16   38 1
    35   17   18 2
    36   17   19 am
    37   19   20 1
    38   19   39 1
    39   20   21 1
    40   20   40 1
    41   20   41 1
    42   21   22 1
    43   21   42 1
    44   21   43 1
    45   22   23 1
    46   22   44 1
    47   22   45 1
    48   23   46 1
@<TRIPOS>MOLECULE
ZINC59491042
   36    37     0     0     0
SMALL
USER_CHARGES

@<TRIPOS>ATOM
      1 C1         -0.6755    0.5392    1.2901 C.3       1 <0>        -0.1615
      2 C2         -0.5095   -0.9297    0.9973 C.2       1 <0>         0.5258
      3 O1         -0.4230   -1.7247    1.9107 O.2       1 <0>        -0.4980
      4 N1         -0.4572   -1.3601   -0.2765 N.am      1 <0>        -0.5437
      5 N2         -0.3029   -2.7258   -0.5487 N.pl3     1 <0>        -0.3818
      6 C3         -0.2522   -3.1426   -1.7823 C.cat     1 <0>         0.4492
      7 N3         -0.3508   -2.2364   -2.8234 N.pl3     1 <0>        -0.7798
      8 S1         -0.0581   -4.8601   -2.1246 S.3       1 <0>         0.1591
      9 C4         -0.0427   -4.9474   -3.9364 C.3       1 <0>        -0.1679
     10 H1          0.7179   -4.2821   -4.3449 H         1 <0>         0.1767
     11 C5          0.1939   -6.3966   -4.4080 C.3       1 <0>        -0.1238
     12 C6         -1.0614   -6.7259   -5.1859 C.2       1 <0>         0.5247
     13 O2         -1.2905   -7.7822   -5.7350 O.2       1 <0>        -0.4217
     14 N4         -1.8793   -5.6661   -5.1714 N.am      1 <0>        -0.5111
     15 C7         -1.4058   -4.6061   -4.4977 C.2       1 <0>         0.5341
     16 O3         -1.9771   -3.5460   -4.3587 O.2       1 <0>        -0.4539
     17 C8         -3.1279   -5.6623   -5.8097 C.ar      1 <0>         0.0899
     18 C9         -3.3416   -4.8490   -6.9143 C.ar      1 <0>        -0.0819
     19 C10        -4.5722   -4.8469   -7.5413 C.ar      1 <0>        -0.0970
     20 C11        -5.5919   -5.6547   -7.0692 C.ar      1 <0>        -0.0155
     21 C12        -5.3814   -6.4658   -5.9680 C.ar      1 <0>        -0.0960
     22 C13        -4.1506   -6.4759   -5.3415 C.ar      1 <0>        -0.0804
     23 Cl1        -7.1376   -5.6499   -7.8593 Cl        1 <0>        -0.0427
     24 H2          0.3057    1.0081    1.3638 H         1 <0>         0.1189
     25 H3         -1.2428    1.0081    0.4861 H         1 <0>         0.0969
     26 H4         -1.2095    0.6638    2.2321 H         1 <0>         0.1220
     27 H5         -0.5263   -0.7249   -1.0063 H         1 <0>         0.4364
     28 H6         -0.4576   -1.2909   -2.6350 H         1 <0>         0.4229
     29 H7         -0.3131   -2.5466   -3.7417 H         1 <0>         0.4408
     30 H8          1.0707   -6.4518   -5.0533 H         1 <0>         0.1628
     31 H9          0.3024   -7.0651   -3.5539 H         1 <0>         0.1447
     32 H10        -2.5462   -4.2182   -7.2829 H         1 <0>         0.1378
     33 H11        -4.7390   -4.2141   -8.4005 H         1 <0>         0.1491
     34 H12        -6.1788   -7.0951   -5.6011 H         1 <0>         0.1498
     35 H13        -3.9853   -7.1128   -4.4850 H         1 <0>         0.1393
     36 H14        -0.2338   -3.3610    0.1811 H         1 <0>         0.4758
@<TRIPOS>BOND
     1    1    2 1
     2    1   24 1
     3    1   25 1
     4    1   26 1
     5    2    3 2
     6    2    4 am
     7    4    5 1
     8    4   27 1
     9    5    6 2
    10    5   36 1
    11    6    7 1
    12    6    8 1
    13    7   28 1
    14    7   29 1
    15    8    9 1
    16    9   10 1
    17    9   15 1
    18    9   11 1
    19   11   12 1
    20   11   30 1
    21   11   31 1
    22   12   13 2
    23   12   14 am
    24   14   15 am
    25   14   17 1
    26   15   16 2
    27   17   22 ar
    28   17   18 ar
    29   18   19 ar
    30   18   32 1
    31   19   20 ar
    32   19   33 1
    33   20   21 ar
    34   20   23 1
    35   21   22 ar
    36   21   34 1
    37   22   35 1
@<TRIPOS>MOLECULE
ZINC63731520
   43    45     0     0     0
SMALL
USER_CHARGES

@<TRIPOS>ATOM
      1 C1         -0.0163    1.3482    0.0095 C.ar      1 <0>        -0.1458
      2 C2          1.1658    2.1014    0.0022 C.ar      1 <0>         0.0548
      3 C3          2.3912    1.5352   -0.0125 C.ar      1 <0>        -0.2084
      4 C4          2.5288    0.1198   -0.0218 C.ar      1 <0>         0.3311
      5 N1          3.5868   -0.6543   -0.0369 N.pl3     1 <0>        -0.5782
      6 C5          3.1432   -2.0528   -0.0408 C.3       1 <0>         0.0642
      7 C6          1.6315   -2.0084   -0.0255 C.2       1 <0>         0.0680
      8 C7          1.2951   -0.6984   -0.0144 C.ar      1 <0>        -0.1512
      9 C8          0.0021   -0.0041    0.0020 C.ar      1 <0>        -0.0173
     10 C9          0.6905   -3.1856   -0.0239 C.3       1 <0>        -0.0837
     11 C10         0.4600   -3.6463   -1.4401 C.2       1 <0>         0.4747
     12 O1          1.0041   -3.0773   -2.3567 O.2       1 <0>        -0.4990
     13 O2         -0.3496   -4.6890   -1.6833 O.3       1 <0>        -0.3141
     14 C11        -0.5224   -5.0714   -3.0493 C.3       1 <0>         0.0510
     15 C12        -1.4575   -6.2507   -3.1263 C.2       1 <0>         0.5191
     16 O3         -1.9295   -6.7177   -2.1113 O.2       1 <0>        -0.4959
     17 N2         -1.7693   -6.7865   -4.3230 N.am      1 <0>        -0.7043
     18 C13        -2.6783   -7.9329   -4.3979 C.3       1 <0>         0.1965
     19 H1         -3.2091   -8.0796   -3.4572 H         1 <0>         0.1720
     20 C14        -3.6611   -7.8028   -5.5914 C.3       1 <0>        -0.1018
     21 H2         -3.8077   -6.7477   -5.8224 H         1 <0>         0.1279
     22 C15        -3.1233   -8.5010   -6.7989 C.2       1 <0>        -0.1974
     23 C16        -2.1656   -9.3979   -6.6662 C.2       1 <0>        -0.0928
     24 S1         -1.7948   -9.4628   -4.9208 S.3       1 <0>        -0.1752
     25 C17        -4.9846   -8.4164   -5.2138 C.2       1 <0>         0.5356
     26 O4         -5.1344   -8.9059   -4.1142 O.2       1 <0>        -0.5218
     27 N3         -6.0019   -8.4214   -6.0979 N.am      1 <0>        -0.8452
     28 H3         -0.9665    1.8612    0.0259 H         1 <0>         0.1594
     29 H4          1.0933    3.1789    0.0083 H         1 <0>         0.1624
     30 H5          3.2717    2.1606   -0.0175 H         1 <0>         0.1623
     31 H6          3.4952   -2.5561   -0.9413 H         1 <0>         0.1773
     32 H7          3.5129   -2.5667    0.8465 H         1 <0>         0.1775
     33 H8         -0.9210   -0.5647    0.0081 H         1 <0>         0.1610
     34 H9          1.1268   -3.9987    0.5563 H         1 <0>         0.1566
     35 H10        -0.2596   -2.8905    0.4214 H         1 <0>         0.1530
     36 H11        -0.9434   -4.2367   -3.6098 H         1 <0>         0.1094
     37 H12         0.4430   -5.3449   -3.4749 H         1 <0>         0.1105
     38 H13        -1.3918   -6.4130   -5.1348 H         1 <0>         0.4084
     39 H14        -3.5179   -8.2712   -7.7776 H         1 <0>         0.1469
     40 H15        -1.7012   -9.9752   -7.4520 H         1 <0>         0.1815
     41 H16        -5.8821   -8.0299   -6.9772 H         1 <0>         0.4036
     42 H17        -6.8538   -8.8164   -5.8548 H         1 <0>         0.4101
     43 H18         4.5087   -0.3528   -0.0446 H         1 <0>         0.4572
@<TRIPOS>BOND
     1    1    9 ar
     2    1    2 ar
     3    1   28 1
     4    2    3 ar
     5    2   29 1
     6    3    4 ar
     7    3   30 1
     8    4    8 ar
     9    4    5 2
    10    5    6 1
    11    5   43 1
    12    6    7 1
    13    6   31 1
    14    6   32 1
    15    7    8 2
    16    7   10 1
    17    8    9 ar
    18    9   33 1
    19   10   11 1
    20   10   34 1
    21   10   35 1
    22   11   12 2
    23   11   13 1
    24   13   14 1
    25   14   15 1
    26   14   36 1
    27   14   37 1
    28   15   16 2
    29   15   17 am
    30   17   18 1
    31   17   38 1
    32   18   19 1
    33   18   24 1
    34   18   20 1
    35   20   21 1
    36   20   22 1
    37   20   25 1
    38   22   23 2
    39   22   39 1
    40   23   24 1
    41   23   40 1
    42   25   26 2
    43   25   27 am
    44   27   41 1
    45   27   42 1
@<TRIPOS>MOLECULE
ZINC66701071
   53    53     0     0     0
SMALL
USER_CHARGES

@<TRIPOS>ATOM
      1 C1         11.9488  -10.3329   -1.9343 C.3       1 <0>        -0.1551
      2 C2         10.4406  -10.3401   -1.6766 C.3       1 <0>         0.0578
      3 O1          9.7879   -9.5173   -2.6455 O.3       1 <0>        -0.3629
      4 C3          8.3683   -9.4549   -2.4934 C.3       1 <0>         0.0573
      5 C4          7.7873   -8.5650   -3.5618 C.2       1 <0>         0.5153
      6 O2          8.5169   -8.0362   -4.3735 O.2       1 <0>        -0.4913
      7 N1          6.4568   -8.3567   -3.6152 N.am      1 <0>        -0.5378
      8 N2          5.9165   -7.5294   -4.6084 N.am      1 <0>        -0.5195
      9 C5          4.5860   -7.3212   -4.6619 C.2       1 <0>         0.7192
     10 O3          4.1172   -6.6032   -5.5238 O.2       1 <0>        -0.5574
     11 N3          3.7752   -7.9088   -3.7598 N.am      1 <0>        -0.7429
     12 C6          2.3290   -7.6824   -3.8178 C.3       1 <0>         0.1261
     13 C7          1.6330   -8.5611   -2.7765 C.3       1 <0>         0.0458
     14 C8          2.1325   -8.1885   -1.3791 C.3       1 <0>        -0.1391
     15 C9          1.4365   -9.0672   -0.3377 C.3       1 <0>        -0.1343
     16 C10         1.7534  -10.5377   -0.6173 C.3       1 <0>        -0.1286
     17 C11         1.2539  -10.9102   -2.0147 C.3       1 <0>        -0.1001
     18 H1          0.1765  -10.7539   -2.0691 H         1 <0>         0.0656
     19 C12         1.9499  -10.0315   -3.0561 C.3       1 <0>        -0.1359
     20 C13         1.5707  -12.3807   -2.2944 C.3       1 <0>        -0.1533
     21 N4          0.1810   -8.3505   -2.8497 N.4       1 <0>        -0.3762
     22 C14        -0.1237   -6.9400   -2.5746 C.3       1 <0>        -0.0630
     23 C15        -0.2975   -8.7018   -4.1935 C.3       1 <0>        -0.0633
     24 H2         12.1485  -10.7200   -2.9335 H         1 <0>         0.0668
     25 H3         12.3255   -9.3129   -1.8578 H         1 <0>         0.0668
     26 H4         12.4467  -10.9606   -1.1953 H         1 <0>         0.0777
     27 H5         10.0639  -11.3601   -1.7531 H         1 <0>         0.0545
     28 H6         10.2409   -9.9531   -0.6774 H         1 <0>         0.0546
     29 H7          7.9486  -10.4565   -2.5869 H         1 <0>         0.0877
     30 H8          8.1256   -9.0495   -1.5112 H         1 <0>         0.0879
     31 H9          5.8732   -8.7797   -2.9660 H         1 <0>         0.4149
     32 H10         6.5001   -7.1065   -5.2577 H         1 <0>         0.4522
     33 H11         4.1492   -8.4816   -3.0721 H         1 <0>         0.3952
     34 H12         2.1167   -6.6339   -3.6089 H         1 <0>         0.0937
     35 H13         1.9611   -7.9365   -4.8119 H         1 <0>         0.0978
     36 H14         3.2099   -8.3448   -1.3247 H         1 <0>         0.1057
     37 H15         1.9068   -7.1409   -1.1798 H         1 <0>         0.0969
     38 H16         1.7924   -8.8018    0.6578 H         1 <0>         0.0964
     39 H17         0.3592   -8.9110   -0.3921 H         1 <0>         0.0599
     40 H18         2.8307  -10.6939   -0.5630 H         1 <0>         0.0798
     41 H19         1.2576  -11.1636    0.1246 H         1 <0>         0.0841
     42 H20         1.5940  -10.2969   -4.0516 H         1 <0>         0.0966
     43 H21         3.0272  -10.1878   -3.0017 H         1 <0>         0.1070
     44 H22         1.0749  -13.0066   -1.5524 H         1 <0>         0.0693
     45 H23         1.2149  -12.6461   -3.2899 H         1 <0>         0.0630
     46 H24         2.6481  -12.5369   -2.2400 H         1 <0>         0.0654
     47 H25        -1.1991   -6.7793   -2.6500 H         1 <0>         0.1310
     48 H26         0.2122   -6.6851   -1.5695 H         1 <0>         0.1275
     49 H27         0.3897   -6.3091   -3.3002 H         1 <0>         0.1278
     50 H28        -0.0714   -9.7483   -4.3976 H         1 <0>         0.1273
     51 H29        -1.3749   -8.5455   -4.2478 H         1 <0>         0.1312
     52 H30         0.1987   -8.0721   -4.9320 H         1 <0>         0.1282
     53 H31        -0.2783   -8.9334   -2.1661 H         1 <0>         0.4270
@<TRIPOS>BOND
     1    1    2 1
     2    1   24 1
     3    1   25 1
     4    1   26 1
     5    2    3 1
     6    2   27 1
     7    2   28 1
     8    3    4 1
     9    4    5 1
    10    4   29 1
    11    4   30 1
    12    5    6 2
    13    5    7 am
    14    7    8 1
    15    7   31 1
    16    8    9 am
    17    8   32 1
    18    9   10 2
    19    9   11 am
    20   11   12 1
    21   11   33 1
    22   12   13 1
    23   12   34 1
    24   12   35 1
    25   13   19 1
    26   13   14 1
    27   13   21 1
    28   14   15 1
    29   14   36 1
    30   14   37 1
    31   15   16 1
    32   15   38 1
    33   15   39 1
    34   16   17 1
    35   16   40 1
    36   16   41 1
    37   17   18 1
    38   17   19 1
    39   17   20 1
    40   19   42 1
    41   19   43 1
    42   20   44 1
    43   20   45 1
    44   20   46 1
    45   21   22 1
    46   21   23 1
    47   21   53 1
    48   22   47 1
    49   22   48 1
    50   22   49 1
    51   23   50 1
    52   23   51 1
    53   23   52 1
@<TRIPOS>MOLECULE
ZINC05883175
   38    40     0     0     0
SMALL
USER_CHARGES
2-(hydroxymethyl)-5-[3-(1,4,5,6-tetrahydropyrimidin-2-yl)-1,2,4-triazol-1-yl]-tetrahydrofuran-3,4-diol
@<TRIPOS>ATOM
      1 C1         -0.0551   -4.1170    0.9014 C.2       1 <0>         0.3134
      2 N1         -0.2158   -2.8814    0.5115 N.2       1 <0>        -0.5100
      3 C2          0.7569   -2.1136    1.0233 C.2       1 <0>         0.1682
      4 N2          1.5458   -2.8672    1.7590 N.2       1 <0>        -0.2297
      5 N3          1.0337   -4.1731    1.6918 N.pl3     1 <0>        -0.3453
      6 C3          1.5771   -5.3627    2.3519 C.3       1 <0>         0.3222
      7 H1          1.5298   -5.2543    3.4354 H         1 <0>         0.1367
      8 C4          3.0328   -5.6264    1.8894 C.3       1 <0>         0.0396
      9 H2          3.1529   -5.3941    0.8313 H         1 <0>         0.0937
     10 C5          3.1830   -7.1464    2.1419 C.3       1 <0>         0.0481
     11 H3          3.6819   -7.3276    3.0939 H         1 <0>         0.1041
     12 C6          1.7332   -7.6671    2.1849 C.3       1 <0>         0.0942
     13 H4          1.5180   -8.0832    3.1691 H         1 <0>         0.1113
     14 O1          0.8692   -6.5475    1.9279 O.3       1 <0>        -0.3472
     15 C7          1.5325   -8.7368    1.1096 C.3       1 <0>         0.0877
     16 O2          0.2172   -9.2841    1.2218 O.3       1 <0>        -0.5714
     17 O3          3.9049   -7.7644    1.0747 O.3       1 <0>        -0.5445
     18 O4          3.9619   -4.8837    2.6814 O.3       1 <0>        -0.5399
     19 C8          0.9137   -0.6575    0.8025 C.cat     1 <0>         0.6294
     20 C9          2.1436    1.3883    1.2393 C.3       1 <0>         0.0713
     21 C10         1.4418    1.9455   -0.0013 C.3       1 <0>        -0.1618
     22 C11        -0.0179    1.4670    0.0101 C.3       1 <0>         0.0807
     23 N4          0.0021   -0.0041    0.0020 N.pl3     1 <0>        -0.6297
     24 H5         -0.6896   -4.9506    0.6388 H         1 <0>         0.2465
     25 H6          1.6566   -8.2887    0.1237 H         1 <0>         0.0608
     26 H7          2.2686   -9.5295    1.2437 H         1 <0>         0.0779
     27 H8          0.0198   -9.9702    0.5696 H         1 <0>         0.3903
     28 H9          4.8240   -7.4731    1.0011 H         1 <0>         0.3910
     29 H10         4.8864   -5.0156    2.4302 H         1 <0>         0.3952
     30 H11         1.7651    1.8977    2.1255 H         1 <0>         0.1148
     31 H12         3.2160    1.5642    1.1543 H         1 <0>         0.1222
     32 H13         1.9400    1.5805   -0.8994 H         1 <0>         0.0976
     33 H14         1.4703    3.0349    0.0201 H         1 <0>         0.1340
     34 H15        -0.5356    1.8355   -0.8755 H         1 <0>         0.1306
     35 H16        -0.5186    1.8259    0.9093 H         1 <0>         0.1087
     36 H17        -0.6140   -0.5041   -0.5559 H         1 <0>         0.4537
     37 N5          1.9597   -0.0982    1.4203 N.pl3     1 <0>        -0.6178
     38 H18         2.6071   -0.6543    1.9911 H         1 <0>         0.4735
@<TRIPOS>BOND
     1    1    5 1
     2    1    2 2
     3    1   24 1
     4    2    3 1
     5    3    4 2
     6    3   19 1
     7    4    5 1
     8    5    6 1
     9    6    7 1
    10    6   14 1
    11    6    8 1
    12    8    9 1
    13    8   10 1
    14    8   18 1
    15   10   11 1
    16   10   12 1
    17   10   17 1
    18   12   13 1
    19   12   14 1
    20   12   15 1
    21   15   16 1
    22   15   25 1
    23   15   26 1
    24   16   27 1
    25   17   28 1
    26   18   29 1
    27   19   23 1
    28   19   37 2
    29   20   21 1
    30   20   30 1
    31   20   31 1
    32   20   37 1
    33   21   22 1
    34   21   32 1
    35   21   33 1
    36   22   23 1
    37   22   34 1
    38   22   35 1
    39   23   36 1
    40   37   38 1
@<TRIPOS>MOLECULE
ZINC35367858
   39    40     0     0     0
SMALL
USER_CHARGES

@<TRIPOS>ATOM
      1 C1         -0.0165    1.3892    0.0317 C.ar      1 <0>        -0.0294
      2 C2          1.1907    2.0645    0.0240 C.ar      1 <0>        -0.1507
      3 C3          2.3745    1.3362   -0.0134 C.ar      1 <0>         0.4100
      4 N1          2.3545    0.0132   -0.0415 N.ar      1 <0>        -0.4695
      5 C4          1.2215   -0.6634   -0.0357 C.ar      1 <0>         0.0303
      6 C5          0.0021   -0.0040    0.0014 C.ar      1 <0>         0.1769
      7 N2         -1.1960   -0.7293    0.0083 N.pl3     1 <0>        -0.8481
      8 N3          3.5956    2.0068   -0.0220 N.pl3     1 <0>        -0.5968
      9 C6          3.6508    3.4734   -0.1190 C.3       1 <0>         0.1192
     10 C7          4.5450    4.0025    1.0074 C.3       1 <0>         0.0369
     11 N4          5.8482    3.3268    0.9520 N.3       1 <0>        -0.5218
     12 C8          5.7102    1.8830    1.1849 C.3       1 <0>         0.0322
     13 C9          4.8636    1.2675    0.0720 C.3       1 <0>         0.1097
     14 C10         6.7926    3.9258    1.9045 C.3       1 <0>         0.0387
     15 C11         8.1747    3.3807    1.6518 C.2       1 <0>         0.5167
     16 O1          8.3551    2.5730    0.7658 O.2       1 <0>        -0.4497
     17 N5          9.2101    3.7910    2.4107 N.am      1 <0>        -0.6916
     18 C12        10.4461    3.3034    2.1846 C.2       1 <0>         0.6966
     19 O2         10.6270    2.4938    1.2964 O.2       1 <0>        -0.5314
     20 N6         11.4816    3.7138    2.9435 N.am      1 <0>        -0.8545
     21 H1         -0.9514    1.9288    0.0650 H         1 <0>         0.1724
     22 H2          1.2133    3.1441    0.0465 H         1 <0>         0.1810
     23 H3          1.2442   -1.7429   -0.0597 H         1 <0>         0.1977
     24 H4         -2.0456   -0.2620    0.0344 H         1 <0>         0.4186
     25 H5         -1.1761   -1.6988   -0.0129 H         1 <0>         0.4147
     26 H6          4.0685    3.7610   -1.0839 H         1 <0>         0.1028
     27 H7          2.6472    3.8853   -0.0139 H         1 <0>         0.1040
     28 H8          4.6866    5.0763    0.8854 H         1 <0>         0.1077
     29 H9          4.0732    3.8044    1.9698 H         1 <0>         0.0509
     30 H10         6.6968    1.4197    1.1917 H         1 <0>         0.1186
     31 H11         5.2222    1.7144    2.1449 H         1 <0>         0.0441
     32 H12         4.6613    0.2217    0.3033 H         1 <0>         0.0797
     33 H13         5.4001    1.3390   -0.8741 H         1 <0>         0.1080
     34 H14         6.8001    5.0083    1.7768 H         1 <0>         0.1212
     35 H15         6.4864    3.6821    2.9218 H         1 <0>         0.0780
     36 H16         9.0658    4.4372    3.1195 H         1 <0>         0.4119
     37 H17        11.3373    4.3599    3.6524 H         1 <0>         0.4016
     38 H18        12.3711    3.3629    2.7808 H         1 <0>         0.4239
     39 H19         3.1942   -0.4716   -0.0674 H         1 <0>         0.4393
@<TRIPOS>BOND
     1    1    6 ar
     2    1    2 ar
     3    1   21 1
     4    2    3 ar
     5    2   22 1
     6    3    4 ar
     7    3    8 1
     8    4    5 ar
     9    4   39 1
    10    5    6 ar
    11    5   23 1
    12    6    7 1
    13    7   24 1
    14    7   25 1
    15    8   13 1
    16    8    9 1
    17    9   10 1
    18    9   26 1
    19    9   27 1
    20   10   11 1
    21   10   28 1
    22   10   29 1
    23   11   12 1
    24   11   14 1
    25   12   13 1
    26   12   30 1
    27   12   31 1
    28   13   32 1
    29   13   33 1
    30   14   15 1
    31   14   34 1
    32   14   35 1
    33   15   16 2
    34   15   17 am
    35   17   18 am
    36   17   36 1
    37   18   19 2
    38   18   20 am
    39   20   37 1
    40   20   38 1
@<TRIPOS>MOLECULE
ZINC37820844
   43    43     0     0     0
SMALL
USER_CHARGES

@<TRIPOS>ATOM
      1 C1         -0.0187    1.5258    0.0104 C.3       1 <0>        -0.1544
      2 C2          0.0021   -0.0041    0.0020 C.3       1 <0>         0.0803
      3 O1         -1.3386   -0.4987    0.0122 O.3       1 <0>        -0.3635
      4 C3         -1.4968   -1.8357    0.0065 C.2       1 <0>         0.6487
      5 O2         -0.5233   -2.5627   -0.0067 O.2       1 <0>        -0.5665
      6 N1         -2.7351   -2.3678    0.0155 N.am      1 <0>        -0.7057
      7 C4         -2.9073   -3.8226    0.0093 C.3       1 <0>         0.1518
      8 H1         -2.1087   -4.2859    0.5886 H         1 <0>         0.0973
      9 C5         -4.2606   -4.1794    0.6285 C.3       1 <0>        -0.1327
     10 C6         -4.4274   -5.7005    0.6525 C.3       1 <0>        -0.1318
     11 C7         -4.3959   -6.2363   -0.7823 C.3       1 <0>         0.0966
     12 N2         -3.1618   -5.7747   -1.4325 N.am      1 <0>        -0.5995
     13 C8         -2.8578   -4.3372   -1.4328 C.3       1 <0>         0.0974
     14 C9         -2.3239   -6.6534   -2.0174 C.2       1 <0>         0.5098
     15 O3         -1.3083   -6.2599   -2.5509 O.2       1 <0>        -0.5297
     16 C10        -2.6489   -8.1249   -2.0087 C.3       1 <0>         0.0968
     17 N3         -1.5906   -8.8629   -2.7027 N.am      1 <0>        -0.6909
     18 C11        -1.6689  -10.2033   -2.8193 C.2       1 <0>         0.4990
     19 O4         -2.6154  -10.7986   -2.3496 O.2       1 <0>        -0.5304
     20 C12        -0.5802  -10.9624   -3.5332 C.3       1 <0>        -0.0250
     21 N4         -0.8970  -12.3969   -3.5247 N.4       1 <0>        -0.6204
     22 H2          1.0039    1.9031    0.0027 H         1 <0>         0.0848
     23 H3         -0.5459    1.8868   -0.8726 H         1 <0>         0.0678
     24 H4         -0.5289    1.8773    0.9072 H         1 <0>         0.0681
     25 H5          0.5123   -0.3556   -0.8948 H         1 <0>         0.0692
     26 H6          0.5293   -0.3651    0.8851 H         1 <0>         0.0695
     27 H7         -3.5123   -1.7874    0.0260 H         1 <0>         0.4115
     28 H8         -4.3073   -3.7928    1.6466 H         1 <0>         0.0837
     29 H9         -5.0599   -3.7357    0.0349 H         1 <0>         0.0789
     30 H10        -3.6145   -6.1466    1.2254 H         1 <0>         0.0744
     31 H11        -5.3812   -5.9546    1.1149 H         1 <0>         0.0931
     32 H12        -4.4148   -7.3260   -0.7659 H         1 <0>         0.0898
     33 H13        -5.2601   -5.8620   -1.3311 H         1 <0>         0.0843
     34 H14        -3.5963   -3.8081   -2.0351 H         1 <0>         0.0793
     35 H15        -1.8621   -4.1739   -1.8450 H         1 <0>         0.1037
     36 H16        -2.7207   -8.4751   -0.9790 H         1 <0>         0.1128
     37 H17        -3.5995   -8.2901   -2.5157 H         1 <0>         0.1127
     38 H18        -0.8335   -8.3868   -3.0783 H         1 <0>         0.4231
     39 H19        -0.5084  -10.6123   -4.5629 H         1 <0>         0.1670
     40 H20         0.3704  -10.7973   -3.0261 H         1 <0>         0.1671
     41 H21        -0.1681  -12.9051   -4.0027 H         1 <0>         0.4465
     42 H22        -0.9635  -12.7210   -2.5714 H         1 <0>         0.4428
     43 H23        -1.7770  -12.5497   -3.9940 H         1 <0>         0.4427
@<TRIPOS>BOND
     1    1    2 1
     2    1   22 1
     3    1   23 1
     4    1   24 1
     5    2    3 1
     6    2   25 1
     7    2   26 1
     8    3    4 1
     9    4    5 2
    10    4    6 am
    11    6    7 1
    12    6   27 1
    13    7    8 1
    14    7   13 1
    15    7    9 1
    16    9   10 1
    17    9   28 1
    18    9   29 1
    19   10   11 1
    20   10   30 1
    21   10   31 1
    22   11   12 1
    23   11   32 1
    24   11   33 1
    25   12   13 1
    26   12   14 am
    27   13   34 1
    28   13   35 1
    29   14   15 2
    30   14   16 1
    31   16   17 1
    32   16   36 1
    33   16   37 1
    34   17   18 am
    35   17   38 1
    36   18   19 2
    37   18   20 1
    38   20   21 1
    39   20   39 1
    40   20   40 1
    41   21   41 1
    42   21   42 1
    43   21   43 1
@<TRIPOS>MOLECULE
ZINC40508435
   45    46     0     0     0
SMALL
USER_CHARGES

@<TRIPOS>ATOM
      1 C1         -0.0469    1.3940   -0.0678 C.3       1 <0>        -0.1396
      2 C2          1.4238    1.8658   -0.1325 C.3       1 <0>        -0.1312
      3 C3          2.1904    0.7049    0.5496 C.3       1 <0>         0.0034
      4 H1          2.1370    0.7938    1.6346 H         1 <0>         0.1659
      5 N1          1.4608   -0.5029    0.0859 N.4       1 <0>        -0.3806
      6 C4          0.0281   -0.1357    0.0924 C.3       1 <0>        -0.0134
      7 C5          1.7007   -1.6235    1.0050 C.3       1 <0>         0.0071
      8 C6          1.0457   -2.8891    0.4480 C.3       1 <0>        -0.1676
      9 C7          1.2918   -4.0387    1.3908 C.2       1 <0>         0.5275
     10 O1          1.9281   -3.8631    2.4077 O.2       1 <0>        -0.4569
     11 N2          0.8046   -5.2620    1.1035 N.am      1 <0>        -0.6870
     12 C8          1.0246   -6.2901    1.9467 C.2       1 <0>         0.6956
     13 O2          1.6625   -6.1141    2.9662 O.2       1 <0>        -0.5257
     14 N3          0.5374   -7.5134    1.6595 N.am      1 <0>        -0.8507
     15 C9          3.6254    0.6728    0.0903 C.2       1 <0>         0.5094
     16 O3          3.9648   -0.0947   -0.7853 O.2       1 <0>        -0.5269
     17 N4          4.5315    1.4969    0.6526 N.am      1 <0>        -0.5858
     18 C10         4.1688    2.3524    1.7927 C.3       1 <0>         0.0968
     19 C11         4.5914    3.7908    1.4757 C.3       1 <0>         0.0405
     20 N5          6.0146    3.8109    1.1122 N.3       1 <0>        -0.6897
     21 C12         6.2634    3.0341   -0.1096 C.3       1 <0>         0.0410
     22 C13         5.9110    1.5601    0.1463 C.3       1 <0>         0.1119
     23 H2         -0.5499    1.8400    0.7902 H         1 <0>         0.1110
     24 H3         -0.5682    1.6528   -0.9895 H         1 <0>         0.1123
     25 H4          1.7455    1.9851   -1.1672 H         1 <0>         0.1048
     26 H5          1.5559    2.7943    0.4230 H         1 <0>         0.1241
     27 H6         -0.4271   -0.4329    1.0372 H         1 <0>         0.1374
     28 H7         -0.4835   -0.6216   -0.7384 H         1 <0>         0.1396
     29 H8          2.7736   -1.7851    1.1086 H         1 <0>         0.1393
     30 H9          1.2723   -1.3917    1.9801 H         1 <0>         0.1429
     31 H10        -0.0272   -2.7275    0.3444 H         1 <0>         0.1246
     32 H11         1.4741   -3.1208   -0.5271 H         1 <0>         0.1265
     33 H12         0.2954   -5.4025    0.2899 H         1 <0>         0.4146
     34 H13         0.0283   -7.6539    0.8458 H         1 <0>         0.4028
     35 H14         0.6958   -8.2534    2.2663 H         1 <0>         0.4269
     36 H15         3.0911    2.3138    1.9511 H         1 <0>         0.0862
     37 H16         4.6859    2.0077    2.6882 H         1 <0>         0.0969
     38 H17         3.9980    4.1693    0.6434 H         1 <0>         0.0400
     39 H18         4.4311    4.4186    2.3523 H         1 <0>         0.0989
     40 H19         6.3492    4.7576    1.0132 H         1 <0>         0.3593
     41 H20         5.6467    3.4231   -0.9198 H         1 <0>         0.0405
     42 H21         7.3157    3.1130   -0.3828 H         1 <0>         0.0994
     43 H22         6.5923    1.1408    0.8866 H         1 <0>         0.0912
     44 H23         5.9856    0.9976   -0.7843 H         1 <0>         0.1030
     45 H24         1.7528   -0.7486   -0.8481 H         1 <0>         0.4340
@<TRIPOS>BOND
     1    1    6 1
     2    1    2 1
     3    1   23 1
     4    1   24 1
     5    2    3 1
     6    2   25 1
     7    2   26 1
     8    3    4 1
     9    3    5 1
    10    3   15 1
    11    5    6 1
    12    5    7 1
    13    5   45 1
    14    6   27 1
    15    6   28 1
    16    7    8 1
    17    7   29 1
    18    7   30 1
    19    8    9 1
    20    8   31 1
    21    8   32 1
    22    9   10 2
    23    9   11 am
    24   11   12 am
    25   11   33 1
    26   12   13 2
    27   12   14 am
    28   14   34 1
    29   14   35 1
    30   15   16 2
    31   15   17 am
    32   17   22 1
    33   17   18 1
    34   18   19 1
    35   18   36 1
    36   18   37 1
    37   19   20 1
    38   19   38 1
    39   19   39 1
    40   20   21 1
    41   20   40 1
    42   21   22 1
    43   21   41 1
    44   21   42 1
    45   22   43 1
    46   22   44 1
@<TRIPOS>MOLECULE
ZINC35367790
   42    43     0     0     0
SMALL
USER_CHARGES

@<TRIPOS>ATOM
      1 C1         -1.5243   -0.4028    0.0724 C.3       1 <0>        -0.1858
      2 C2         -0.0527   -0.0092   -0.0700 C.3       1 <0>         0.0681
      3 H1          0.3272   -0.3638   -1.0282 H         1 <0>         0.1187
      4 C3          0.0748    1.4909   -0.0032 C.2       1 <0>         0.5238
      5 O1          0.5915    2.0129    0.9614 O.2       1 <0>        -0.4485
      6 N1         -0.3855    2.2521   -1.0156 N.am      1 <0>        -0.6909
      7 C4         -0.2715    3.5937   -0.9558 C.2       1 <0>         0.6966
      8 O2          0.2465    4.1170    0.0112 O.2       1 <0>        -0.5315
      9 N2         -0.7318    4.3550   -1.9682 N.am      1 <0>        -0.8552
     10 N3          0.7240   -0.6158    1.0194 N.3       1 <0>        -0.5163
     11 C5          0.9296   -2.0511    0.7836 C.3       1 <0>         0.0374
     12 C6          1.8906   -2.6064    1.8401 C.3       1 <0>         0.1194
     13 N4          1.3695   -2.2633    3.1720 N.pl3     1 <0>        -0.6035
     14 C7          1.0100   -0.8624    3.4390 C.3       1 <0>         0.1196
     15 C8          0.0837   -0.3757    2.3195 C.3       1 <0>         0.0304
     16 C9          1.2191   -3.2447    4.1597 C.ar      1 <0>         0.1871
     17 C10         1.6507   -4.5501    3.9289 C.ar      1 <0>        -0.0378
     18 C11         1.4823   -5.4866    4.9322 C.ar      1 <0>        -0.1402
     19 C12         0.8920   -5.0981    6.1302 C.ar      1 <0>         0.4055
     20 N5          0.4936   -3.8498    6.3145 N.ar      1 <0>        -0.4586
     21 C13         0.6444   -2.9288    5.3811 C.ar      1 <0>         0.0172
     22 N6          0.7177   -6.0339    7.1474 N.pl3     1 <0>        -0.8320
     23 H2         -1.9042   -0.0483    1.0305 H         1 <0>         0.0695
     24 H3         -2.1006    0.0472   -0.7360 H         1 <0>         0.0755
     25 H4         -1.6166   -1.4878    0.0240 H         1 <0>         0.0739
     26 H5         -0.7989    1.8344   -1.7873 H         1 <0>         0.4104
     27 H6         -1.1452    3.9373   -2.7399 H         1 <0>         0.4011
     28 H7         -0.6498    5.3205   -1.9252 H         1 <0>         0.4234
     29 H8         -0.0258   -2.5713    0.8515 H         1 <0>         0.0483
     30 H9          1.3552   -2.1993   -0.2089 H         1 <0>         0.0998
     31 H10         1.9574   -3.6898    1.7410 H         1 <0>         0.0925
     32 H11         2.8771   -2.1622    1.7074 H         1 <0>         0.0920
     33 H12         0.4946   -0.7927    4.3969 H         1 <0>         0.0865
     34 H13         1.9119   -0.2505    3.4599 H         1 <0>         0.0944
     35 H14        -0.1043    0.6911    2.4409 H         1 <0>         0.1120
     36 H15        -0.8599   -0.9193    2.3660 H         1 <0>         0.0459
     37 H16         2.1057   -4.8236    2.9883 H         1 <0>         0.1727
     38 H17         1.8048   -6.5071    4.7874 H         1 <0>         0.1813
     39 H18         0.3119   -1.9186    5.5692 H         1 <0>         0.1986
     40 H19         1.0074   -6.9505    7.0180 H         1 <0>         0.4371
     41 H20         0.3066   -5.7688    7.9850 H         1 <0>         0.4186
     42 H21         0.0841   -3.6043    7.1588 H         1 <0>         0.4428
@<TRIPOS>BOND
     1    1    2 1
     2    1   23 1
     3    1   24 1
     4    1   25 1
     5    2    3 1
     6    2    4 1
     7    2   10 1
     8    4    5 2
     9    4    6 am
    10    6    7 am
    11    6   26 1
    12    7    8 2
    13    7    9 am
    14    9   27 1
    15    9   28 1
    16   10   15 1
    17   10   11 1
    18   11   12 1
    19   11   29 1
    20   11   30 1
    21   12   13 1
    22   12   31 1
    23   12   32 1
    24   13   14 1
    25   13   16 1
    26   14   15 1
    27   14   33 1
    28   14   34 1
    29   15   35 1
    30   15   36 1
    31   16   21 ar
    32   16   17 ar
    33   17   18 ar
    34   17   37 1
    35   18   19 ar
    36   18   38 1
    37   19   20 ar
    38   19   22 1
    39   20   21 ar
    40   20   42 1
    41   21   39 1
    42   22   40 1
    43   22   41 1
@<TRIPOS>MOLECULE
ZINC15707497
   51    53     0     0     0
SMALL
USER_CHARGES
N-[(4R,7S,8aS)-1-oxo-4-(3-oxo-3-pyrrolidin-1-yl-propyl)-3,4,6,7,8,8a-hexahydro-2H-pyrrolo[1,5-a]pyrazin-7-yl]methanesulfonamide
@<TRIPOS>ATOM
      1 C1         -1.3923    5.8728    3.4116 C.3       1 <0>        -0.6772
      2 S1         -1.8321    6.7102    4.9594 S.o2      1 <0>         2.6043
      3 O1         -2.6585    7.8344    4.6900 O.2       1 <0>        -0.9352
      4 O2         -0.6864    6.8359    5.7906 O.2       1 <0>        -0.9385
      5 N1         -2.8168    5.6431    5.7557 N.pl3     1 <0>        -1.1192
      6 C2         -2.2843    4.3581    6.2155 C.3       1 <0>         0.1244
      7 H1         -1.2016    4.4153    6.3274 H         1 <0>         0.1515
      8 C3         -2.9450    3.9495    7.5591 C.3       1 <0>        -0.1329
      9 C4         -3.5780    2.5902    7.2594 C.3       1 <0>         0.0118
     10 H2         -2.8544    1.7959    7.4426 H         1 <0>         0.1772
     11 C5         -4.8568    2.2982    7.9726 C.2       1 <0>         0.5108
     12 O3         -5.0468    2.7232    9.0925 O.2       1 <0>        -0.4673
     13 N2         -5.7966    1.5558    7.3556 N.am      1 <0>        -0.7285
     14 C6         -5.7184    1.1049    5.9722 C.3       1 <0>         0.0817
     15 C7         -4.3329    1.3553    5.3591 C.3       1 <0>         0.0275
     16 H3         -3.6328    0.5920    5.6987 H         1 <0>         0.1523
     17 C8         -2.6661    3.2253    5.2222 C.3       1 <0>        -0.0343
     18 C9         -4.4278    1.3312    3.8322 C.3       1 <0>        -0.1225
     19 C10        -4.7661   -0.0858    3.3646 C.3       1 <0>        -0.1377
     20 C11        -4.7429   -0.1368    1.8587 C.2       1 <0>         0.5264
     21 O4         -4.4814    0.8619    1.2221 O.2       1 <0>        -0.5396
     22 N3         -5.0126   -1.2921    1.2193 N.am      1 <0>        -0.6147
     23 C12        -5.3453   -2.5754    1.8666 C.3       1 <0>         0.0940
     24 C13        -6.1449   -3.3616    0.7978 C.3       1 <0>        -0.1362
     25 C14        -5.4099   -2.9523   -0.5059 C.3       1 <0>        -0.1356
     26 C15        -5.0247   -1.4820   -0.2386 C.3       1 <0>         0.1041
     27 H4         -2.2980    5.6592    2.8439 H         1 <0>         0.1326
     28 H5         -0.7381    6.5164    2.8234 H         1 <0>         0.1428
     29 H6         -0.8764    4.9395    3.6373 H         1 <0>         0.1266
     30 H7         -3.7462    5.8688    5.9176 H         1 <0>         0.4240
     31 H8         -3.7091    4.6724    7.8449 H         1 <0>         0.1193
     32 H9         -2.1947    3.8572    8.3443 H         1 <0>         0.1397
     33 H10        -6.5807    1.3039    7.8682 H         1 <0>         0.4272
     34 H11        -6.4668    1.6359    5.3840 H         1 <0>         0.1048
     35 H12        -5.9340    0.0371    5.9352 H         1 <0>         0.1241
     36 H13        -1.8808    2.4707    5.1789 H         1 <0>         0.1580
     37 H14        -2.8642    3.6333    4.2311 H         1 <0>         0.1510
     38 H15        -3.4732    1.6369    3.4040 H         1 <0>         0.1070
     39 H16        -5.2090    2.0177    3.5059 H         1 <0>         0.1028
     40 H17        -5.7589   -0.3590    3.7221 H         1 <0>         0.1064
     41 H18        -4.0312   -0.7851    3.7632 H         1 <0>         0.1071
     42 H19        -5.9590   -2.4068    2.7515 H         1 <0>         0.0783
     43 H20        -4.4354   -3.1137    2.1318 H         1 <0>         0.0764
     44 H21        -7.1867   -3.0419    0.7758 H         1 <0>         0.0800
     45 H22        -6.0715   -4.4359    0.9669 H         1 <0>         0.0912
     46 H23        -4.5196   -3.5633   -0.6547 H         1 <0>         0.0809
     47 H24        -6.0766   -3.0291   -1.3648 H         1 <0>         0.0892
     48 H25        -4.0351   -1.2779   -0.6473 H         1 <0>         0.0729
     49 H26        -5.7584   -0.8177   -0.6952 H         1 <0>         0.0733
     50 N4         -3.8948    2.6954    5.8673 N.4       1 <0>        -0.3957
     51 H27        -4.6628    3.3623    5.7270 H         1 <0>         0.4334
@<TRIPOS>BOND
     1    1    2 1
     2    1   27 1
     3    1   28 1
     4    1   29 1
     5    2    3 2
     6    2    4 2
     7    2    5 1
     8    5    6 1
     9    5   30 1
    10    6    7 1
    11    6   17 1
    12    6    8 1
    13    8    9 1
    14    8   31 1
    15    8   32 1
    16    9   10 1
    17    9   11 1
    18    9   50 1
    19   11   12 2
    20   11   13 am
    21   13   14 1
    22   13   33 1
    23   14   15 1
    24   14   34 1
    25   14   35 1
    26   15   16 1
    27   15   18 1
    28   15   50 1
    29   17   36 1
    30   17   37 1
    31   17   50 1
    32   18   19 1
    33   18   38 1
    34   18   39 1
    35   19   20 1
    36   19   40 1
    37   19   41 1
    38   20   21 2
    39   20   22 am
    40   22   26 1
    41   22   23 1
    42   23   24 1
    43   23   42 1
    44   23   43 1
    45   24   25 1
    46   24   44 1
    47   24   45 1
    48   25   26 1
    49   25   46 1
    50   25   47 1
    51   26   48 1
    52   26   49 1
    53   50   51 1
@<TRIPOS>MOLECULE
ZINC32777705
   49    50     0     0     0
SMALL
USER_CHARGES
(2S)-N-(methylcarbamoyl)-2-(4-pyrrolidin-1-ylsulfonylpiperazin-1-yl)propanamide
@<TRIPOS>ATOM
      1 C1          0.8015   -3.8797    1.8255 C.3       1 <0>        -0.1831
      2 C2         -0.7211   -3.7380    1.7766 C.3       1 <0>         0.0146
      3 H1         -1.2000   -4.7053    1.5644 H         1 <0>         0.1637
      4 C3         -1.2183   -3.2023    3.0945 C.2       1 <0>         0.5164
      5 O1         -1.3495   -2.0075    3.2525 O.2       1 <0>        -0.4519
      6 N1         -1.5171   -4.0515    4.0975 N.am      1 <0>        -0.6909
      7 C4         -1.9618   -3.5724    5.2762 C.2       1 <0>         0.6922
      8 O2         -2.0933   -2.3746    5.4346 O.2       1 <0>        -0.5242
      9 N2         -2.2606   -4.4216    6.2792 N.am      1 <0>        -0.7422
     10 C5         -2.7440   -3.9009    7.5604 C.3       1 <0>         0.0989
     11 N3         -1.0923   -2.8105    0.6997 N.4       1 <0>        -0.3812
     12 C6         -2.5357   -2.5378    0.7139 C.3       1 <0>        -0.0336
     13 C7         -2.9094   -1.7170   -0.5250 C.3       1 <0>         0.1018
     14 N4         -2.0514   -0.5233   -0.5709 N.pl3     1 <0>        -1.0187
     15 C8         -0.5965   -0.7073   -0.4581 C.3       1 <0>         0.1006
     16 C9         -0.3143   -1.5673    0.7841 C.3       1 <0>        -0.0441
     17 S1         -2.7055    0.9872   -0.7516 S.o2      1 <0>         2.7937
     18 O3         -1.6867    1.8072   -1.3072 O.2       1 <0>        -0.9532
     19 O4         -3.9681    0.8106   -1.3793 O.2       1 <0>        -0.9541
     20 N5         -3.0098    1.5739    0.7668 N.pl3     1 <0>        -1.0183
     21 C10        -4.2638    1.4048    1.5154 C.3       1 <0>         0.1171
     22 C11        -4.0953    2.1370    2.8632 C.3       1 <0>        -0.1319
     23 C12        -2.9696    3.1613    2.5615 C.3       1 <0>        -0.1258
     24 C13        -2.0703    2.3577    1.5893 C.3       1 <0>         0.1195
     25 H2          1.1644   -4.2707    0.8635 H         1 <0>         0.1044
     26 H3          1.0794   -4.5743    2.6320 H         1 <0>         0.1132
     27 H4          1.2553   -2.8960    2.0162 H         1 <0>         0.0947
     28 H5         -1.3980   -5.1356    3.9541 H         1 <0>         0.4430
     29 H6         -2.1415   -5.5057    6.1358 H         1 <0>         0.4257
     30 H7         -2.9329   -4.7380    8.2486 H         1 <0>         0.0884
     31 H8         -3.6768   -3.3405    7.3999 H         1 <0>         0.0649
     32 H9         -1.9852   -3.2333    7.9946 H         1 <0>         0.0653
     33 H10        -3.0886   -3.4887    0.7056 H         1 <0>         0.1435
     34 H11        -2.7931   -1.9719    1.6214 H         1 <0>         0.1403
     35 H12        -2.7545   -2.3254   -1.4283 H         1 <0>         0.1052
     36 H13        -3.9659   -1.4175   -0.4614 H         1 <0>         0.1338
     37 H14        -0.2197   -1.2119   -1.3600 H         1 <0>         0.1036
     38 H15        -0.1096    0.2738   -0.3564 H         1 <0>         0.1343
     39 H16        -0.6046   -1.0138    1.6893 H         1 <0>         0.1563
     40 H17         0.7580   -1.8082    0.8298 H         1 <0>         0.1474
     41 H18        -5.0952    1.8394    0.9410 H         1 <0>         0.0758
     42 H19        -4.4517    0.3333    1.6788 H         1 <0>         0.0583
     43 H20        -5.0445    2.6194    3.1396 H         1 <0>         0.0857
     44 H21        -3.8120    1.4127    3.6411 H         1 <0>         0.0776
     45 H22        -3.4061    4.0621    2.1053 H         1 <0>         0.0826
     46 H23        -2.4614    3.4342    3.4982 H         1 <0>         0.0892
     47 H24        -1.3966    1.6749    2.1277 H         1 <0>         0.0667
     48 H25        -1.4788    3.0199    0.9399 H         1 <0>         0.0855
     49 H26        -0.8521   -3.2910   -0.2602 H         1 <0>         0.4490
@<TRIPOS>BOND
     1    1    2 1
     2    1   25 1
     3    1   26 1
     4    1   27 1
     5    2    3 1
     6    2    4 1
     7    2   11 1
     8    4    5 2
     9    4    6 am
    10    6    7 am
    11    6   28 1
    12    7    8 2
    13    7    9 am
    14    9   10 1
    15    9   29 1
    16   10   30 1
    17   10   31 1
    18   10   32 1
    19   11   16 1
    20   11   12 1
    21   11   49 1
    22   12   13 1
    23   12   33 1
    24   12   34 1
    25   13   14 1
    26   13   35 1
    27   13   36 1
    28   14   15 1
    29   14   17 1
    30   15   16 1
    31   15   37 1
    32   15   38 1
    33   16   39 1
    34   16   40 1
    35   17   18 2
    36   17   19 2
    37   17   20 1
    38   20   24 1
    39   20   21 1
    40   21   22 1
    41   21   41 1
    42   21   42 1
    43   22   23 1
    44   22   43 1
    45   22   44 1
    46   23   24 1
    47   23   45 1
    48   23   46 1
    49   24   47 1
    50   24   48 1
@<TRIPOS>MOLECULE
ZINC40144811
   47    49     0     0     0
SMALL
USER_CHARGES

@<TRIPOS>ATOM
      1 C1         -0.1305    1.8690    0.5690 C.3       1 <0>        -0.1709
      2 C2         -0.1932    0.5202   -0.1506 C.3       1 <0>         0.1122
      3 H1          0.4539   -0.1938    0.3589 H         1 <0>         0.1588
      4 C3         -1.6112    0.0102   -0.1391 C.2       1 <0>         0.4988
      5 O1         -2.1900   -0.1961   -1.1850 O.2       1 <0>        -0.4942
      6 N1         -2.2363   -0.2169    1.0331 N.am      1 <0>        -0.6480
      7 C4         -3.5837   -0.6013    1.0457 C.ar      1 <0>         0.0835
      8 C5         -4.0851   -1.4119    0.0378 C.ar      1 <0>        -0.0049
      9 C6         -5.4142   -1.7901    0.0526 C.ar      1 <0>        -0.6733
     10 C7         -6.2471   -1.3621    1.0701 C.ar      1 <0>        -0.0043
     11 C8         -5.7546   -0.5541    2.0779 C.ar      1 <0>        -0.1419
     12 C9         -4.4219   -0.1752    2.0735 C.ar      1 <0>         0.1515
     13 O2         -3.9346    0.6149    3.0671 O.3       1 <0>        -0.4910
     14 S1         -6.0492   -2.8197   -1.2285 S.o2      1 <0>         2.6907
     15 O3         -7.4497   -2.5847   -1.2818 O.2       1 <0>        -0.9416
     16 O4         -5.2025   -2.6358   -2.3547 O.2       1 <0>        -0.9460
     17 N2         -5.8511   -4.3892   -0.7387 N.pl3     1 <0>        -0.9989
     18 C10        -4.6197   -5.1310   -1.0528 C.3       1 <0>         0.0852
     19 C11        -4.0900   -5.7589    0.2415 C.3       1 <0>         0.0477
     20 O5         -5.1380   -6.5038    0.8665 O.3       1 <0>        -0.3713
     21 C12        -6.2603   -5.7132    1.2658 C.3       1 <0>         0.0463
     22 C13        -6.8987   -5.0812    0.0288 C.3       1 <0>         0.0826
     23 N3          0.2556    0.6843   -1.5354 N.pl3     1 <0>        -0.4022
     24 C14        -0.3050    1.5016   -2.4796 C.2       1 <0>         0.0491
     25 C15         0.4158    1.3467   -3.6065 C.2       1 <0>         0.0042
     26 N4          1.3900    0.4591   -3.3573 N.pl3     1 <0>        -0.4702
     27 C16         1.3033    0.0618   -2.1173 C.cat     1 <0>         0.2931
     28 H2          0.8951    2.2380    0.5607 H         1 <0>         0.0948
     29 H3         -0.7776    2.5830    0.0595 H         1 <0>         0.0842
     30 H4         -0.4645    1.7470    1.5994 H         1 <0>         0.1057
     31 H5         -1.7534   -0.1141    1.8681 H         1 <0>         0.4235
     32 H6         -3.4370   -1.7470   -0.7585 H         1 <0>         0.1576
     33 H7         -7.2853   -1.6596    1.0772 H         1 <0>         0.1525
     34 H8         -6.4079   -0.2213    2.8709 H         1 <0>         0.1527
     35 H9         -4.0031    1.5622    2.8857 H         1 <0>         0.4025
     36 H10        -4.8381   -5.9146   -1.7783 H         1 <0>         0.0901
     37 H11        -3.8743   -4.4488   -1.4617 H         1 <0>         0.0952
     38 H12        -3.2586   -6.4244    0.0096 H         1 <0>         0.1086
     39 H13        -3.7506   -4.9722    0.9154 H         1 <0>         0.0527
     40 H14        -6.9901   -6.3460    1.7707 H         1 <0>         0.1131
     41 H15        -5.9287   -4.9264    1.9434 H         1 <0>         0.0557
     42 H16        -7.6619   -4.3661    0.3358 H         1 <0>         0.1022
     43 H17        -7.3505   -5.8597   -0.5860 H         1 <0>         0.0908
     44 H18        -1.1611    2.1464   -2.3464 H         1 <0>         0.2183
     45 H19         0.2402    1.8492   -4.5463 H         1 <0>         0.2260
     46 H20         1.9592   -0.6491   -1.6368 H         1 <0>         0.2620
     47 H21         2.0561    0.1621   -3.9969 H         1 <0>         0.4668
@<TRIPOS>BOND
     1    1    2 1
     2    1   28 1
     3    1   29 1
     4    1   30 1
     5    2    3 1
     6    2    4 1
     7    2   23 1
     8    4    5 2
     9    4    6 am
    10    6    7 1
    11    6   31 1
    12    7   12 ar
    13    7    8 ar
    14    8    9 ar
    15    8   32 1
    16    9   10 ar
    17    9   14 1
    18   10   11 ar
    19   10   33 1
    20   11   12 ar
    21   11   34 1
    22   12   13 1
    23   13   35 1
    24   14   15 2
    25   14   16 2
    26   14   17 1
    27   17   22 1
    28   17   18 1
    29   18   19 1
    30   18   36 1
    31   18   37 1
    32   19   20 1
    33   19   38 1
    34   19   39 1
    35   20   21 1
    36   21   22 1
    37   21   40 1
    38   21   41 1
    39   22   42 1
    40   22   43 1
    41   23   27 1
    42   23   24 1
    43   24   25 2
    44   24   44 1
    45   25   26 1
    46   25   45 1
    47   26   27 2
    48   26   47 1
    49   27   46 1
@<TRIPOS>MOLECULE
ZINC53561377
   44    46     0     0     0
SMALL
USER_CHARGES

@<TRIPOS>ATOM
      1 C1          0.2657    0.8600   -0.1001 C.3       1 <0>         0.0745
      2 N1          0.1431   -0.5937    0.0336 N.pl3     1 <0>        -0.4410
      3 C2          0.0955   -1.5197   -0.9999 C.2       1 <0>        -0.1667
      4 C3          0.1402   -1.4323   -2.4025 C.2       1 <0>         0.5967
      5 O1          0.2444   -0.3479   -2.9488 O.2       1 <0>        -0.5169
      6 N2          0.0672   -2.5614   -3.1371 N.am      1 <0>        -0.6505
      7 H1          0.0978   -2.5045   -4.1050 H         1 <0>         0.4423
      8 C4         -0.0470   -3.7643   -2.5481 C.2       1 <0>         0.7106
      9 O2         -0.1094   -4.7610   -3.2421 O.2       1 <0>        -0.5265
     10 N3         -0.0934   -3.8928   -1.2087 N.am      1 <0>        -0.5100
     11 C5         -0.0232   -2.7692   -0.4009 C.2       1 <0>         0.3584
     12 N4         -0.0439   -2.5820    0.9198 N.2       1 <0>        -0.5300
     13 C6          0.0597   -1.2973    1.1937 C.2       1 <0>         0.5455
     14 N5          0.0770   -0.7525    2.4571 N.pl3     1 <0>        -0.7037
     15 C7         -0.0204   -1.6229    3.6315 C.3       1 <0>         0.1922
     16 C8          0.0213   -0.7844    4.8830 C.ar      1 <0>        -0.1162
     17 C9          1.1810   -0.7011    5.6328 C.ar      1 <0>         0.0294
     18 C10         1.1743    0.0830    6.7785 C.ar      1 <0>        -0.1262
     19 C11         0.0198    0.7516    7.1337 C.ar      1 <0>         0.1471
     20 N6         -1.0721    0.6534    6.3995 N.ar      1 <0>        -0.4609
     21 C12        -1.1039   -0.0792    5.2969 C.ar      1 <0>         0.4265
     22 N7         -2.2741   -0.1493    4.5499 N.pl3     1 <0>        -0.6776
     23 C13        -3.2497   -1.2096    4.8147 C.3       1 <0>         0.0974
     24 C14        -2.5317    0.8370    3.4978 C.3       1 <0>         0.0987
     25 C15        -0.2187   -5.2217   -0.6049 C.3       1 <0>         0.0848
     26 H2          1.3201    1.1362   -0.1105 H         1 <0>         0.0855
     27 H3         -0.2028    1.1800   -1.0308 H         1 <0>         0.1073
     28 H4         -0.2287    1.3453    0.7413 H         1 <0>         0.0803
     29 H5          0.1536    0.2078    2.5702 H         1 <0>         0.4102
     30 H6         -0.9585   -2.1769    3.5964 H         1 <0>         0.1001
     31 H7          0.8151   -2.3230    3.6352 H         1 <0>         0.1035
     32 H8          2.0713   -1.2343    5.3337 H         1 <0>         0.1829
     33 H9          2.0632    0.1688    7.3860 H         1 <0>         0.1920
     34 H10         0.0102    1.3627    8.0241 H         1 <0>         0.2124
     35 H11        -4.0152   -0.8372    5.4955 H         1 <0>         0.0606
     36 H12        -3.7150   -1.5174    3.8783 H         1 <0>         0.0891
     37 H13        -2.7450   -2.0630    5.2674 H         1 <0>         0.0731
     38 H14        -1.7442    1.5906    3.5055 H         1 <0>         0.0675
     39 H15        -2.5481    0.3386    2.5285 H         1 <0>         0.0727
     40 H16        -3.4945    1.3158    3.6764 H         1 <0>         0.0748
     41 H17        -0.2596   -5.9756   -1.3910 H         1 <0>         0.1055
     42 H18         0.6418   -5.4119    0.0366 H         1 <0>         0.0798
     43 H19        -1.1316   -5.2663   -0.0109 H         1 <0>         0.0792
     44 H20        -1.8699    1.1334    6.6718 H         1 <0>         0.4454
@<TRIPOS>BOND
     1    1    2 1
     2    1   26 1
     3    1   27 1
     4    1   28 1
     5    2   13 1
     6    2    3 1
     7    3   11 2
     8    3    4 1
     9    4    5 2
    10    4    6 am
    11    6    7 1
    12    6    8 am
    13    8    9 2
    14    8   10 am
    15   10   11 1
    16   10   25 1
    17   11   12 1
    18   12   13 2
    19   13   14 1
    20   14   15 1
    21   14   29 1
    22   15   16 1
    23   15   30 1
    24   15   31 1
    25   16   21 ar
    26   16   17 ar
    27   17   18 ar
    28   17   32 1
    29   18   19 ar
    30   18   33 1
    31   19   20 ar
    32   19   34 1
    33   20   21 ar
    34   20   44 1
    35   21   22 1
    36   22   23 1
    37   22   24 1
    38   23   35 1
    39   23   36 1
    40   23   37 1
    41   24   38 1
    42   24   39 1
    43   24   40 1
    44   25   41 1
    45   25   42 1
    46   25   43 1
@<TRIPOS>MOLECULE
ZINC66892442
   57    59     0     0     0
SMALL
USER_CHARGES

@<TRIPOS>ATOM
      1 C1         -0.2143    1.6396    0.0008 C.3       1 <0>        -0.1256
      2 C2          1.2077    2.1696    0.0227 C.3       1 <0>        -0.1515
      3 C3          1.9421    1.8147   -1.2716 C.3       1 <0>         0.0964
      4 N1          2.5329    0.4744   -1.1256 N.am      1 <0>        -0.7194
      5 C4          1.7562   -0.6098   -1.1260 C.2       1 <0>         0.5079
      6 O1          2.2539   -1.7098   -1.0107 O.2       1 <0>        -0.5223
      7 C5          0.2551   -0.4719   -1.2695 C.3       1 <0>         0.1336
      8 H1         -0.1879   -1.4528   -1.4420 H         1 <0>         0.1293
      9 C6         -0.3040    0.1245    0.0245 C.3       1 <0>        -0.1291
     10 N2         -0.0525    0.4122   -2.3963 N.am      1 <0>        -0.6990
     11 C7          0.0265   -0.0528   -3.6589 C.2       1 <0>         0.5030
     12 O2          0.3523   -1.2032   -3.8621 O.2       1 <0>        -0.5070
     13 C8         -0.2900    0.8567   -4.8180 C.3       1 <0>        -0.0418
     14 N3         -0.1311    0.1179   -6.0777 N.4       1 <0>        -0.3542
     15 C9         -1.1533   -0.9323   -6.1595 C.3       1 <0>        -0.0165
     16 C10        -0.9423   -1.7569   -7.4311 C.3       1 <0>        -0.1449
     17 C11        -1.0523   -0.8392   -8.6521 C.3       1 <0>        -0.1343
     18 C12        -0.0316    0.2948   -8.5197 C.3       1 <0>        -0.1353
     19 C13        -0.2764    1.0433   -7.2077 C.3       1 <0>         0.0048
     20 H2         -1.2842    1.4586   -7.2094 H         1 <0>         0.1590
     21 C14         0.7258    2.1607   -7.0731 C.2       1 <0>         0.5030
     22 O3          1.7616    1.9769   -6.4696 O.2       1 <0>        -0.5190
     23 N4          0.4710    3.3644   -7.6234 N.am      1 <0>        -0.5893
     24 C15        -0.7319    3.5837   -8.4421 C.3       1 <0>         0.0560
     25 C16        -1.4487    4.8353   -7.9227 C.3       1 <0>         0.0454
     26 O4         -0.5179    5.9184   -7.8591 O.3       1 <0>        -0.3672
     27 C17         0.5673    5.7053   -6.9531 C.3       1 <0>         0.0466
     28 C18         1.3844    4.4997   -7.4182 C.3       1 <0>         0.0715
     29 H3         -0.7458    2.0332    0.8672 H         1 <0>         0.0860
     30 H4         -0.7073    2.0033   -0.9007 H         1 <0>         0.0572
     31 H5          1.1845    3.2535    0.1359 H         1 <0>         0.0869
     32 H6          1.7399    1.7332    0.8680 H         1 <0>         0.0813
     33 H7          1.2378    1.8153   -2.1036 H         1 <0>         0.0714
     34 H8          2.7308    2.5439   -1.4564 H         1 <0>         0.0933
     35 H9          3.4933    0.3791   -1.0288 H         1 <0>         0.4072
     36 H10         0.2676   -0.2556    0.8711 H         1 <0>         0.0936
     37 H11        -1.3472   -0.1715    0.1347 H         1 <0>         0.0928
     38 H12        -0.3131    1.3323   -2.2338 H         1 <0>         0.4141
     39 H13        -1.3171    1.2113   -4.7318 H         1 <0>         0.1606
     40 H14         0.3904    1.7083   -4.8080 H         1 <0>         0.1610
     41 H15        -1.0758   -1.5827   -5.2882 H         1 <0>         0.1512
     42 H16        -2.1424   -0.4750   -6.1835 H         1 <0>         0.1289
     43 H17         0.0465   -2.2150   -7.4080 H         1 <0>         0.0929
     44 H18        -1.7033   -2.5350   -7.4909 H         1 <0>         0.1192
     45 H19        -0.8468   -1.4106   -9.5573 H         1 <0>         0.1039
     46 H20        -2.0574   -0.4207   -8.7042 H         1 <0>         0.0862
     47 H21         0.9761   -0.1207   -8.5192 H         1 <0>         0.1000
     48 H22        -0.1417    0.9833   -9.3576 H         1 <0>         0.1179
     49 H23        -0.4455    3.7302   -9.4835 H         1 <0>         0.1009
     50 H24        -1.3936    2.7213   -8.3607 H         1 <0>         0.0947
     51 H25        -2.2637    5.0948   -8.5983 H         1 <0>         0.1188
     52 H26        -1.8480    4.6395   -6.9276 H         1 <0>         0.0592
     53 H27         1.2026    6.5907   -6.9312 H         1 <0>         0.1201
     54 H28         0.1752    5.5127   -5.9544 H         1 <0>         0.0593
     55 H29         2.1235    4.2437   -6.6590 H         1 <0>         0.1102
     56 H30         1.8875    4.7401   -8.3547 H         1 <0>         0.0935
     57 H31         0.7849   -0.3043   -6.1057 H         1 <0>         0.4375
@<TRIPOS>BOND
     1    1    9 1
     2    1    2 1
     3    1   29 1
     4    1   30 1
     5    2    3 1
     6    2   31 1
     7    2   32 1
     8    3    4 1
     9    3   33 1
    10    3   34 1
    11    4    5 am
    12    4   35 1
    13    5    6 2
    14    5    7 1
    15    7    8 1
    16    7    9 1
    17    7   10 1
    18    9   36 1
    19    9   37 1
    20   10   11 am
    21   10   38 1
    22   11   12 2
    23   11   13 1
    24   13   14 1
    25   13   39 1
    26   13   40 1
    27   14   19 1
    28   14   15 1
    29   14   57 1
    30   15   16 1
    31   15   41 1
    32   15   42 1
    33   16   17 1
    34   16   43 1
    35   16   44 1
    36   17   18 1
    37   17   45 1
    38   17   46 1
    39   18   19 1
    40   18   47 1
    41   18   48 1
    42   19   20 1
    43   19   21 1
    44   21   22 2
    45   21   23 am
    46   23   28 1
    47   23   24 1
    48   24   25 1
    49   24   49 1
    50   24   50 1
    51   25   26 1
    52   25   51 1
    53   25   52 1
    54   26   27 1
    55   27   28 1
    56   27   53 1
    57   27   54 1
    58   28   55 1
    59   28   56 1
@<TRIPOS>MOLECULE
ZINC08643721
   56    58     0     0     0
SMALL
USER_CHARGES
2-[3,4-dihydroxy-5-[[4-(methylaminomethyl)triazol-1-yl]methyl]tetrahydrofuran-2-yl]-1-(4-methyl-1-piperidyl)-ethanone
@<TRIPOS>ATOM
      1 C1          2.2974    2.1929    5.7466 C.3       1 <0>        -0.1493
      2 C2          1.2902    1.4949    4.8305 C.3       1 <0>        -0.0930
      3 C3          0.1041    2.4271    4.5729 C.3       1 <0>        -0.1308
      4 C4         -0.9183    1.7122    3.6837 C.3       1 <0>         0.1120
      5 N1         -0.2416    1.2460    2.4658 N.am      1 <0>        -0.6143
      6 C5          0.9609    0.4126    2.6007 C.3       1 <0>         0.1055
      7 C6          1.9654    1.1466    3.5020 C.3       1 <0>        -0.1322
      8 C7         -0.7181    1.5718    1.2479 C.2       1 <0>         0.5175
      9 O1         -1.7145    2.2562    1.1498 O.2       1 <0>        -0.5222
     10 C8         -0.0127    1.0858    0.0080 C.3       1 <0>        -0.1398
     11 C9         -0.7527    1.5927   -1.2315 C.3       1 <0>         0.1013
     12 H1         -0.8598    2.6762   -1.1818 H         1 <0>         0.0971
     13 C10         0.0250    1.2008   -2.5028 C.3       1 <0>         0.0423
     14 H2          0.9030    0.6082   -2.2455 H         1 <0>         0.0867
     15 C11        -0.9817    0.3523   -3.3171 C.3       1 <0>         0.0468
     16 H3         -0.8142   -0.7124   -3.1544 H         1 <0>         0.0901
     17 C12        -2.3403    0.7963   -2.7175 C.3       1 <0>         0.0711
     18 H4         -2.6678    1.7356   -3.1631 H         1 <0>         0.0934
     19 O2         -2.0489    0.9766   -1.3129 O.3       1 <0>        -0.3247
     20 C13        -3.3974   -0.2922   -2.9136 C.3       1 <0>         0.1186
     21 N2         -4.6963    0.1987   -2.4468 N.pl3     1 <0>        -0.2786
     22 C14        -5.8368    0.2383   -3.1739 C.2       1 <0>        -0.0068
     23 C15        -6.7852    0.7574   -2.3596 C.2       1 <0>        -0.1120
     24 N3         -6.1846    1.0139   -1.1922 N.2       1 <0>        -0.2482
     25 N4         -4.9475    0.6717   -1.2763 N.2       1 <0>        -0.0155
     26 C16        -8.2320    1.0032   -2.7025 C.3       1 <0>         0.1028
     27 C17       -10.4607    0.0652   -2.5778 C.3       1 <0>        -0.0424
     28 O3         -0.9091    0.6707   -4.7083 O.3       1 <0>        -0.5453
     29 O4          0.4046    2.3669   -3.2364 O.3       1 <0>        -0.5401
     30 H5          1.8170    2.4400    6.6933 H         1 <0>         0.0575
     31 H6          3.1423    1.5292    5.9302 H         1 <0>         0.0571
     32 H7          2.6505    3.1069    5.2689 H         1 <0>         0.0551
     33 H8          0.9369    0.5814    5.3088 H         1 <0>         0.0726
     34 H9          0.4531    3.3302    4.0722 H         1 <0>         0.0672
     35 H10        -0.3622    2.6939    5.5213 H         1 <0>         0.0772
     36 H11        -1.7168    2.4042    3.4160 H         1 <0>         0.0929
     37 H12        -1.3353    0.8594    4.2193 H         1 <0>         0.0667
     38 H13         0.6940   -0.5441    3.0498 H         1 <0>         0.0720
     39 H14         1.4027    0.2468    1.6182 H         1 <0>         0.0832
     40 H15         2.2969    2.0618    3.0115 H         1 <0>         0.0687
     41 H16         2.8241    0.5016    3.6884 H         1 <0>         0.0781
     42 H17         0.0021   -0.0041    0.0020 H         1 <0>         0.1027
     43 H18         1.0099    1.4631    0.0003 H         1 <0>         0.1115
     44 H19        -3.4641   -0.5475   -3.9712 H         1 <0>         0.1332
     45 H20        -3.1172   -1.1777   -2.3431 H         1 <0>         0.1193
     46 H21        -5.9650   -0.0818   -4.1974 H         1 <0>         0.2015
     47 H22        -8.5756    1.9080   -2.2010 H         1 <0>         0.1471
     48 H23        -8.3342    1.1244   -3.7809 H         1 <0>         0.1461
     49 H24       -10.8197    0.9634   -2.0754 H         1 <0>         0.1249
     50 H25       -10.5784    0.1799   -3.6553 H         1 <0>         0.1239
     51 H26       -11.0371   -0.7956   -2.2389 H         1 <0>         0.1260
     52 H27        -0.0464    0.4938   -5.1077 H         1 <0>         0.3895
     53 H28         0.8973    2.1787   -4.0468 H         1 <0>         0.3847
     54 N5         -9.0374   -0.1485   -2.2544 N.4       1 <0>        -0.5198
     55 H29        -8.9338   -0.2596   -1.2390 H         1 <0>         0.4388
     56 H30        -8.7064   -0.9977   -2.7272 H         1 <0>         0.4322
@<TRIPOS>BOND
     1    1    2 1
     2    1   30 1
     3    1   31 1
     4    1   32 1
     5    2    7 1
     6    2    3 1
     7    2   33 1
     8    3    4 1
     9    3   34 1
    10    3   35 1
    11    4    5 1
    12    4   36 1
    13    4   37 1
    14    5    6 1
    15    5    8 am
    16    6    7 1
    17    6   38 1
    18    6   39 1
    19    7   40 1
    20    7   41 1
    21    8    9 2
    22    8   10 1
    23   10   11 1
    24   10   42 1
    25   10   43 1
    26   11   12 1
    27   11   19 1
    28   11   13 1
    29   13   14 1
    30   13   15 1
    31   13   29 1
    32   15   16 1
    33   15   17 1
    34   15   28 1
    35   17   18 1
    36   17   19 1
    37   17   20 1
    38   20   21 1
    39   20   44 1
    40   20   45 1
    41   21   25 1
    42   21   22 1
    43   22   23 2
    44   22   46 1
    45   23   24 1
    46   23   26 1
    47   24   25 2
    48   26   47 1
    49   26   48 1
    50   26   54 1
    51   27   49 1
    52   27   50 1
    53   27   51 1
    54   27   54 1
    55   28   52 1
    56   29   53 1
    57   54   55 1
    58   54   56 1
@<TRIPOS>MOLECULE
ZINC22922447
   53    55     0     0     0
SMALL
USER_CHARGES

@<TRIPOS>ATOM
      1 C1         -0.3484    1.4726    0.1550 C.3       1 <0>        -0.0811
      2 N1          0.0170    0.0606   -0.0197 N.4       1 <0>        -0.3634
      3 C2          0.4494   -0.1279   -1.3886 C.3       1 <0>         0.0280
      4 H1          1.3900    0.3874   -1.5827 H         1 <0>         0.1606
      5 C3         -0.6883    0.3897   -2.3145 C.3       1 <0>        -0.1554
      6 C4         -1.5288   -0.8594   -2.6450 C.3       1 <0>         0.0177
      7 N2         -0.8959   -2.0067   -1.9504 N.3       1 <0>        -0.4982
      8 C5          0.5366   -1.6126   -1.7575 C.3       1 <0>         0.0392
      9 H2          1.0029   -1.6622   -2.7415 H         1 <0>         0.1255
     10 C6          1.3272   -2.4727   -0.8835 C.2       1 <0>         0.5231
     11 O1          2.0247   -3.2530   -1.4962 O.2       1 <0>        -0.5263
     12 N3          1.4520   -2.5899    0.4137 N.am      1 <0>        -0.6992
     13 C7          0.9335   -1.7042    1.4380 C.3       1 <0>         0.0826
     14 C8          0.9712   -0.2833    0.9943 C.3       1 <0>        -0.0017
     15 H3          1.9724   -0.0834    0.6124 H         1 <0>         0.1405
     16 C9          0.7309    0.6084    2.2141 C.3       1 <0>        -0.1319
     17 C10         1.7634    0.2828    3.2952 C.3       1 <0>        -0.1473
     18 C11         1.6124    1.2495    4.4415 C.2       1 <0>         0.5157
     19 O2          0.7627    2.1137    4.3980 O.2       1 <0>        -0.5359
     20 N4          2.4217    1.1536    5.5150 N.am      1 <0>        -0.7232
     21 C12         2.2749    2.0933    6.6292 C.3       1 <0>         0.2334
     22 C13         3.2683    1.7800    7.6694 C.1       1 <0>        -0.2330
     23 C14         4.0605    1.5301    8.4989 C.1       1 <0>        -0.1435
     24 C15        -0.9980   -3.2310   -2.7558 C.3       1 <0>         0.1356
     25 C16        -2.4333   -3.6888   -2.7942 C.2       1 <0>         0.1932
     26 N5         -3.0208   -4.4264   -1.8921 N.2       1 <0>        -0.4634
     27 C17        -4.2953   -4.6360   -2.2537 C.2       1 <0>        -0.0249
     28 C18        -4.5056   -4.0043   -3.4242 C.2       1 <0>        -0.0372
     29 N6         -3.3262   -3.3987   -3.7649 N.pl3     1 <0>        -0.5655
     30 H4          0.5057    2.1024   -0.0937 H         1 <0>         0.1291
     31 H5         -1.1830    1.7160   -0.5025 H         1 <0>         0.1335
     32 H6         -0.6392    1.6472    1.1909 H         1 <0>         0.1469
     33 H7         -1.2961    1.1283   -1.7918 H         1 <0>         0.1140
     34 H8         -0.2705    0.8175   -3.2258 H         1 <0>         0.1214
     35 H9         -2.5494   -0.7255   -2.2865 H         1 <0>         0.1059
     36 H10        -1.5302   -1.0318   -3.7212 H         1 <0>         0.0726
     37 H11         1.9502   -3.3609    0.7273 H         1 <0>         0.4228
     38 H12        -0.0988   -1.9776    1.6566 H         1 <0>         0.0958
     39 H13         1.5304   -1.8176    2.3430 H         1 <0>         0.1382
     40 H14         0.8265    1.6547    1.9238 H         1 <0>         0.1146
     41 H15        -0.2714    0.4294    2.6033 H         1 <0>         0.1053
     42 H16         1.6052   -0.7341    3.6543 H         1 <0>         0.1099
     43 H17         2.7665    0.3686    2.8773 H         1 <0>         0.1093
     44 H18         3.1013    0.4623    5.5497 H         1 <0>         0.4076
     45 H19         2.4332    3.1102    6.2702 H         1 <0>         0.0955
     46 H20         1.2719    2.0075    7.0471 H         1 <0>         0.0960
     47 H21         4.7691    1.3067    9.2409 H         1 <0>         0.2252
     48 H22        -0.6539   -3.0285   -3.7700 H         1 <0>         0.0702
     49 H23        -0.3797   -4.0109   -2.3113 H         1 <0>         0.1177
     50 H24        -5.0250   -5.2107   -1.7026 H         1 <0>         0.1753
     51 H25        -5.4285   -3.9771   -3.9844 H         1 <0>         0.1828
     52 H26        -3.1619   -2.8630   -4.5567 H         1 <0>         0.4180
     53 H27        -0.8113   -0.4970    0.1255 H         1 <0>         0.4285
@<TRIPOS>BOND
     1    1    2 1
     2    1   30 1
     3    1   31 1
     4    1   32 1
     5    2   14 1
     6    2    3 1
     7    2   53 1
     8    3    4 1
     9    3    8 1
    10    3    5 1
    11    5    6 1
    12    5   33 1
    13    5   34 1
    14    6    7 1
    15    6   35 1
    16    6   36 1
    17    7    8 1
    18    7   24 1
    19    8    9 1
    20    8   10 1
    21   10   11 2
    22   10   12 am
    23   12   13 1
    24   12   37 1
    25   13   14 1
    26   13   38 1
    27   13   39 1
    28   14   15 1
    29   14   16 1
    30   16   17 1
    31   16   40 1
    32   16   41 1
    33   17   18 1
    34   17   42 1
    35   17   43 1
    36   18   19 2
    37   18   20 am
    38   20   21 1
    39   20   44 1
    40   21   22 1
    41   21   45 1
    42   21   46 1
    43   22   23 3
    44   23   47 1
    45   24   25 1
    46   24   48 1
    47   24   49 1
    48   25   29 1
    49   25   26 2
    50   26   27 1
    51   27   28 2
    52   27   50 1
    53   28   29 1
    54   28   51 1
    55   29   52 1
@<TRIPOS>MOLECULE
ZINC45375936
   51    53     0     0     0
SMALL
USER_CHARGES

@<TRIPOS>ATOM
      1 C1         -0.0165    1.3839    0.0307 C.ar      1 <0>         0.0543
      2 C2          1.1901    2.0606    0.0231 C.ar      1 <0>        -0.1982
      3 C3          2.3743    1.3317   -0.0135 C.ar      1 <0>         0.4488
      4 N1          2.3502    0.0080   -0.0406 N.ar      1 <0>        -0.5056
      5 C4          1.2145   -0.6636   -0.0346 C.ar      1 <0>         0.1690
      6 C5          0.0021   -0.0040    0.0014 C.ar      1 <0>        -0.1577
      7 C6         -1.2881   -0.7828    0.0089 C.3       1 <0>         0.1844
      8 N2         -1.7316   -1.0064   -1.3693 N.am      1 <0>        -0.7497
      9 C7         -2.8705   -1.6860   -1.6089 C.2       1 <0>         0.7135
     10 O1         -3.5300   -2.1135   -0.6812 O.2       1 <0>        -0.5781
     11 N3         -3.2785   -1.8917   -2.8769 N.am      1 <0>        -0.7196
     12 C8         -4.5165   -2.6304   -3.1373 C.3       1 <0>         0.1478
     13 H1         -5.2464   -2.4077   -2.3590 H         1 <0>         0.1168
     14 C9         -5.0797   -2.2254   -4.5017 C.3       1 <0>        -0.1217
     15 C10        -6.5777   -2.4642   -4.5573 C.3       1 <0>        -0.1217
     16 C11        -6.9671   -3.9301   -4.5015 C.3       1 <0>        -0.1462
     17 C12        -6.6272   -4.5330   -3.1371 C.3       1 <0>         0.1007
     18 N4         -5.2301   -4.9958   -3.1615 N.am      1 <0>        -0.7191
     19 C13        -4.2281   -4.1168   -3.1540 C.2       1 <0>         0.5078
     20 O2         -3.0808   -4.5098   -3.1659 O.2       1 <0>        -0.5453
     21 N5          3.5937    1.9988   -0.0220 N.pl3     1 <0>        -0.5893
     22 C14         3.6540    3.4659   -0.1189 C.3       1 <0>         0.0732
     23 C15         4.5633    3.9875    0.9995 C.3       1 <0>         0.0422
     24 O3          5.8137    3.2961    0.9505 O.3       1 <0>        -0.3631
     25 C16         5.7131    1.8879    1.1757 C.3       1 <0>         0.0467
     26 C17         4.8624    1.2592    0.0719 C.3       1 <0>         0.0595
     27 H2         -0.9517    1.9231    0.0632 H         1 <0>         0.1777
     28 H3          1.2124    3.1402    0.0448 H         1 <0>         0.1822
     29 H4          1.2335   -1.7432   -0.0578 H         1 <0>         0.2094
     30 H5         -1.1301   -1.7430    0.5000 H         1 <0>         0.0930
     31 H6         -2.0494   -0.2195    0.5487 H         1 <0>         0.0983
     32 H7         -1.2055   -0.6653   -2.1095 H         1 <0>         0.3979
     33 H8         -2.7524   -1.5506   -3.6170 H         1 <0>         0.4021
     34 H9         -4.8782   -1.1681   -4.6736 H         1 <0>         0.0861
     35 H10        -4.5934   -2.8139   -5.2797 H         1 <0>         0.0750
     36 H11        -7.0437   -1.9482   -3.7178 H         1 <0>         0.0702
     37 H12        -6.9641   -2.0365   -5.4824 H         1 <0>         0.0774
     38 H13        -8.0388   -4.0232   -4.6775 H         1 <0>         0.0848
     39 H14        -6.4287   -4.4738   -5.2777 H         1 <0>         0.0736
     40 H15        -6.7483   -3.7759   -2.3623 H         1 <0>         0.0795
     41 H16        -7.2882   -5.3758   -2.9348 H         1 <0>         0.0938
     42 H17        -5.0376   -5.9463   -3.1795 H         1 <0>         0.4045
     43 H18         4.0621    3.7533   -1.0879 H         1 <0>         0.1068
     44 H19         2.6535    3.8828   -0.0031 H         1 <0>         0.1121
     45 H20         4.7323    5.0556    0.8631 H         1 <0>         0.1270
     46 H21         4.0888    3.8136    1.9653 H         1 <0>         0.0673
     47 H22         6.7092    1.4456    1.1659 H         1 <0>         0.1261
     48 H23         5.2428    1.7065    2.1421 H         1 <0>         0.0659
     49 H24         4.6619    0.2155    0.3140 H         1 <0>         0.0891
     50 H25         5.3943    1.3207   -0.8776 H         1 <0>         0.1102
     51 H26         3.1882   -0.4800   -0.0659 H         1 <0>         0.4404
@<TRIPOS>BOND
     1    1    6 ar
     2    1    2 ar
     3    1   27 1
     4    2    3 ar
     5    2   28 1
     6    3    4 ar
     7    3   21 1
     8    4    5 ar
     9    4   51 1
    10    5    6 ar
    11    5   29 1
    12    6    7 1
    13    7    8 1
    14    7   30 1
    15    7   31 1
    16    8    9 am
    17    8   32 1
    18    9   10 2
    19    9   11 am
    20   11   12 1
    21   11   33 1
    22   12   13 1
    23   12   19 1
    24   12   14 1
    25   14   15 1
    26   14   34 1
    27   14   35 1
    28   15   16 1
    29   15   36 1
    30   15   37 1
    31   16   17 1
    32   16   38 1
    33   16   39 1
    34   17   18 1
    35   17   40 1
    36   17   41 1
    37   18   19 am
    38   18   42 1
    39   19   20 2
    40   21   26 1
    41   21   22 1
    42   22   23 1
    43   22   43 1
    44   22   44 1
    45   23   24 1
    46   23   45 1
    47   23   46 1
    48   24   25 1
    49   25   26 1
    50   25   47 1
    51   25   48 1
    52   26   49 1
    53   26   50 1
@<TRIPOS>MOLECULE
ZINC63303070
   52    55     0     0     0
SMALL
USER_CHARGES

@<TRIPOS>ATOM
      1 C1         -0.0163    1.3482    0.0095 C.ar      1 <0>        -0.1487
      2 C2          1.1658    2.1014    0.0022 C.ar      1 <0>         0.0540
      3 C3          2.3912    1.5352   -0.0125 C.ar      1 <0>        -0.2095
      4 C4          2.5288    0.1198   -0.0218 C.ar      1 <0>         0.3268
      5 N1          3.5868   -0.6543   -0.0369 N.pl3     1 <0>        -0.5834
      6 C5          3.1432   -2.0528   -0.0408 C.3       1 <0>         0.0629
      7 C6          1.6315   -2.0084   -0.0255 C.2       1 <0>         0.0714
      8 C7          1.2951   -0.6984   -0.0144 C.ar      1 <0>        -0.1676
      9 C8          0.0021   -0.0041    0.0020 C.ar      1 <0>        -0.0152
     10 C9          0.6905   -3.1856   -0.0239 C.3       1 <0>        -0.0862
     11 C10         0.4565   -3.6534   -1.4617 C.3       1 <0>         0.2010
     12 H1          0.1150   -2.8208   -2.0767 H         1 <0>         0.1104
     13 N2         -0.5401   -4.7501   -1.4868 N.3       1 <0>        -0.6459
     14 C11        -0.0314   -5.6740   -2.5339 C.3       1 <0>         0.1856
     15 H2         -0.3004   -5.3147   -3.5272 H         1 <0>         0.1359
     16 O1          1.4016   -5.6322   -2.3474 O.3       1 <0>        -0.2113
     17 N3          1.7002   -4.2242   -2.0212 N.3       1 <0>        -0.5062
     18 C12        -0.5589   -7.0684   -2.3141 C.2       1 <0>         0.5262
     19 O2         -1.3756   -7.5354   -3.0795 O.2       1 <0>        -0.5004
     20 N4         -0.1232   -7.7965   -1.2670 N.am      1 <0>        -0.7141
     21 C13        -0.6360   -9.1521   -1.0534 C.3       1 <0>         0.1171
     22 C14         0.0155   -9.7532    0.1936 C.3       1 <0>         0.0461
     23 N5         -0.4987  -11.1125    0.4078 N.3       1 <0>        -0.5334
     24 C15        -1.9292  -11.0874    0.7463 C.3       1 <0>         0.0122
     25 C16        -2.4365  -12.5234    0.9019 C.3       1 <0>         0.0615
     26 O3         -1.6568  -13.1942    1.8956 O.3       1 <0>        -0.3830
     27 C17        -0.2587  -13.2377    1.5976 C.3       1 <0>         0.0614
     28 C18         0.2708  -11.8089    1.4491 C.3       1 <0>         0.0195
     29 H3         -0.9665    1.8612    0.0259 H         1 <0>         0.1584
     30 H4          1.0933    3.1789    0.0083 H         1 <0>         0.1612
     31 H5          3.2717    2.1606   -0.0175 H         1 <0>         0.1608
     32 H6          3.4952   -2.5561   -0.9413 H         1 <0>         0.1769
     33 H7          3.5129   -2.5667    0.8465 H         1 <0>         0.1750
     34 H8         -0.9210   -0.5647    0.0081 H         1 <0>         0.1617
     35 H9          1.1268   -3.9987    0.5563 H         1 <0>         0.1225
     36 H10        -0.2596   -2.8905    0.4214 H         1 <0>         0.1282
     37 H11        -0.5921   -5.2120   -0.5912 H         1 <0>         0.3594
     38 H12         1.9940   -3.7163   -2.8420 H         1 <0>         0.3600
     39 H13         0.5300   -7.4230   -0.6548 H         1 <0>         0.4028
     40 H14        -1.7167   -9.1143   -0.9163 H         1 <0>         0.0760
     41 H15        -0.4011   -9.7702   -1.9199 H         1 <0>         0.0854
     42 H16         1.0962   -9.7910    0.0566 H         1 <0>         0.0849
     43 H17        -0.2195   -9.1351    1.0602 H         1 <0>         0.0424
     44 H18        -2.0723  -10.5474    1.6822 H         1 <0>         0.0461
     45 H19        -2.4829  -10.5900   -0.0500 H         1 <0>         0.0900
     46 H20        -3.4824  -12.5087    1.2087 H         1 <0>         0.1018
     47 H21        -2.3429  -13.0476   -0.0492 H         1 <0>         0.0632
     48 H22         0.2706  -13.7396    2.4076 H         1 <0>         0.1020
     49 H23        -0.1017  -13.7827    0.6668 H         1 <0>         0.0631
     50 H24         1.3229  -11.8382    1.1658 H         1 <0>         0.0891
     51 H25         0.1628  -11.2804    2.3963 H         1 <0>         0.0457
     52 H26         4.5087   -0.3528   -0.0446 H         1 <0>         0.4561
@<TRIPOS>BOND
     1    1    9 ar
     2    1    2 ar
     3    1   29 1
     4    2    3 ar
     5    2   30 1
     6    3    4 ar
     7    3   31 1
     8    4    8 ar
     9    4    5 2
    10    5    6 1
    11    5   52 1
    12    6    7 1
    13    6   32 1
    14    6   33 1
    15    7    8 2
    16    7   10 1
    17    8    9 ar
    18    9   34 1
    19   10   11 1
    20   10   35 1
    21   10   36 1
    22   11   12 1
    23   11   17 1
    24   11   13 1
    25   13   14 1
    26   13   37 1
    27   14   15 1
    28   14   16 1
    29   14   18 1
    30   16   17 1
    31   17   38 1
    32   18   19 2
    33   18   20 am
    34   20   21 1
    35   20   39 1
    36   21   22 1
    37   21   40 1
    38   21   41 1
    39   22   23 1
    40   22   42 1
    41   22   43 1
    42   23   28 1
    43   23   24 1
    44   24   25 1
    45   24   44 1
    46   24   45 1
    47   25   26 1
    48   25   46 1
    49   25   47 1
    50   26   27 1
    51   27   28 1
    52   27   48 1
    53   27   49 1
    54   28   50 1
    55   28   51 1
@<TRIPOS>MOLECULE
ZINC45665702
   48    50     0     0     0
SMALL
USER_CHARGES

@<TRIPOS>ATOM
      1 C1          1.0634   -0.2127   -0.6821 C.ar      1 <0>         0.0362
      2 C2          2.1027    0.6994   -0.7110 C.ar      1 <0>        -0.1746
      3 C3          1.9320    1.9408   -0.1080 C.ar      1 <0>         0.4361
      4 N1          0.7921    2.2523    0.4883 N.ar      1 <0>        -0.4880
      5 C4         -0.2196    1.4066    0.5349 C.ar      1 <0>         0.0973
      6 C5         -0.1217    0.1513   -0.0455 C.ar      1 <0>         0.1398
      7 N2         -1.2019   -0.7415    0.0076 N.am      1 <0>        -0.6764
      8 C6         -0.9768   -2.0661    0.1136 C.2       1 <0>         0.7155
      9 O1          0.1565   -2.4800    0.2648 O.2       1 <0>        -0.5667
     10 N3         -2.0078   -2.9319    0.0520 N.am      1 <0>        -0.7066
     11 C7         -1.7632   -4.3717    0.1672 C.3       1 <0>         0.1451
     12 H1         -0.9429   -4.5493    0.8628 H         1 <0>         0.1199
     13 C8         -3.0277   -5.0692    0.6744 C.3       1 <0>        -0.1233
     14 C9         -2.6807   -6.3756    1.3651 C.3       1 <0>        -0.1218
     15 C10        -2.1164   -7.4312    0.4319 C.3       1 <0>        -0.1474
     16 C11        -0.7453   -7.0112   -0.1010 C.3       1 <0>         0.1002
     17 N4         -0.9403   -6.1808   -1.3006 N.am      1 <0>        -0.7171
     18 C12        -1.4094   -4.9380   -1.1918 C.2       1 <0>         0.5073
     19 O2         -1.5583   -4.2601   -2.1864 O.2       1 <0>        -0.5430
     20 N5          2.9721    2.8663   -0.1314 N.pl3     1 <0>        -0.5939
     21 C13         2.7866    4.2277    0.3954 C.3       1 <0>         0.0638
     22 C14         3.9329    4.5305    1.3671 C.3       1 <0>         0.0456
     23 O3          5.1802    4.2642    0.7212 O.3       1 <0>        -0.3637
     24 C15         5.3625    2.8981    0.3411 C.3       1 <0>         0.0425
     25 C16         4.2910    2.5100   -0.6780 C.3       1 <0>         0.0749
     26 H2          1.1662   -1.1825   -1.1460 H         1 <0>         0.1827
     27 H3          3.0353    0.4504   -1.1954 H         1 <0>         0.1842
     28 H4         -1.1344    1.6954    1.0310 H         1 <0>         0.2071
     29 H5         -2.1110   -0.4056   -0.0318 H         1 <0>         0.4218
     30 H6         -2.9119   -2.6016   -0.0686 H         1 <0>         0.4093
     31 H7         -3.5399   -4.4152    1.3801 H         1 <0>         0.0883
     32 H8         -3.6877   -5.2733   -0.1687 H         1 <0>         0.0783
     33 H9         -1.9469   -6.1726    2.1451 H         1 <0>         0.0701
     34 H10        -3.5817   -6.7713    1.8339 H         1 <0>         0.0797
     35 H11        -2.0177   -8.3722    0.9731 H         1 <0>         0.0862
     36 H12        -2.7993   -7.5706   -0.4061 H         1 <0>         0.0750
     37 H13        -0.2176   -6.4361    0.6600 H         1 <0>         0.0791
     38 H14        -0.1663   -7.8976   -0.3599 H         1 <0>         0.0952
     39 H15        -0.7227   -6.5393   -2.1753 H         1 <0>         0.4065
     40 H16         2.8024    4.9444   -0.4257 H         1 <0>         0.1098
     41 H17         1.8336    4.2914    0.9207 H         1 <0>         0.0864
     42 H18         3.8925    5.5789    1.6625 H         1 <0>         0.1242
     43 H19         3.8380    3.8988    2.2503 H         1 <0>         0.0651
     44 H20         6.3505    2.7721   -0.1016 H         1 <0>         0.1265
     45 H21         5.2728    2.2604    1.2205 H         1 <0>         0.0659
     46 H22         4.3338    1.4367   -0.8632 H         1 <0>         0.1111
     47 H23         4.4609    3.0507   -1.6090 H         1 <0>         0.1052
     48 H24         0.6981    3.1247    0.9019 H         1 <0>         0.4407
@<TRIPOS>BOND
     1    1    6 ar
     2    1    2 ar
     3    1   26 1
     4    2    3 ar
     5    2   27 1
     6    3    4 ar
     7    3   20 1
     8    4    5 ar
     9    4   48 1
    10    5    6 ar
    11    5   28 1
    12    6    7 1
    13    7    8 am
    14    7   29 1
    15    8    9 2
    16    8   10 am
    17   10   11 1
    18   10   30 1
    19   11   12 1
    20   11   18 1
    21   11   13 1
    22   13   14 1
    23   13   31 1
    24   13   32 1
    25   14   15 1
    26   14   33 1
    27   14   34 1
    28   15   16 1
    29   15   35 1
    30   15   36 1
    31   16   17 1
    32   16   37 1
    33   16   38 1
    34   17   18 am
    35   17   39 1
    36   18   19 2
    37   20   25 1
    38   20   21 1
    39   21   22 1
    40   21   40 1
    41   21   41 1
    42   22   23 1
    43   22   42 1
    44   22   43 1
    45   23   24 1
    46   24   25 1
    47   24   44 1
    48   24   45 1
    49   25   46 1
    50   25   47 1
@<TRIPOS>MOLECULE
ZINC08643718
   51    53     0     0     0
SMALL
USER_CHARGES
2-[3,4-dihydroxy-5-[[4-(methylaminomethyl)triazol-1-yl]methyl]tetrahydrofuran-2-yl]-1-morpholino-ethanone
@<TRIPOS>ATOM
      1 C1         -4.4476    0.9659    1.4459 C.3       1 <0>        -0.0425
      2 C2         -2.5459    1.4304    0.0210 C.3       1 <0>         0.1026
      3 C3         -1.1057    1.8739    0.0167 C.2       1 <0>        -0.1110
      4 C4         -0.0126    1.0758    0.0080 C.2       1 <0>        -0.0070
      5 N1          1.0582    1.9031    0.0022 N.pl3     1 <0>        -0.2787
      6 N2          0.6301    3.1170    0.0120 N.2       1 <0>        -0.0153
      7 N3         -0.6561    3.1338    0.0239 N.2       1 <0>        -0.2479
      8 C5          2.4632    1.4885   -0.0131 C.3       1 <0>         0.1179
      9 C6          3.1754    2.1438   -1.1981 C.3       1 <0>         0.0685
     10 H1          2.6462    1.9258   -2.1258 H         1 <0>         0.0938
     11 C7          4.6376    1.6531   -1.2850 C.3       1 <0>         0.0464
     12 H2          4.9844    1.3116   -0.3097 H         1 <0>         0.0857
     13 C8          5.4272    2.9034   -1.7330 C.3       1 <0>         0.0436
     14 H3          6.1644    3.1799   -0.9791 H         1 <0>         0.0859
     15 C9          4.3486    4.0016   -1.8637 C.3       1 <0>         0.1020
     16 H4          4.0000    4.0702   -2.8942 H         1 <0>         0.0958
     17 O1          3.2738    3.5709   -0.9990 O.3       1 <0>        -0.3245
     18 C10         4.9015    5.3495   -1.3964 C.3       1 <0>        -0.1344
     19 C11         3.8775    6.4265   -1.6466 C.2       1 <0>         0.5203
     20 O2          2.8105    6.1437   -2.1491 O.2       1 <0>        -0.5222
     21 N4          4.1474    7.7038   -1.3118 N.am      1 <0>        -0.6194
     22 C12         5.4324    8.0700   -0.6953 C.3       1 <0>         0.0709
     23 C13         6.0221    9.2511   -1.4826 C.3       1 <0>         0.0451
     24 O3          5.0435   10.2893   -1.5737 O.3       1 <0>        -0.3761
     25 C14         3.8615    9.9185   -2.2873 C.3       1 <0>         0.0466
     26 C15         3.1633    8.7724   -1.5463 C.3       1 <0>         0.0779
     27 O4          6.0630    2.6699   -2.9912 O.3       1 <0>        -0.5383
     28 O5          4.7585    0.6082   -2.2522 O.3       1 <0>        -0.5429
     29 H5         -4.7905    0.9484    2.4804 H         1 <0>         0.1261
     30 H6         -5.0584    1.6631    0.8724 H         1 <0>         0.1250
     31 H7         -4.5359   -0.0323    1.0169 H         1 <0>         0.1240
     32 H8         -3.1435    2.1309   -0.5624 H         1 <0>         0.1473
     33 H9         -2.6211    0.4355   -0.4179 H         1 <0>         0.1463
     34 H10         0.0021   -0.0041    0.0020 H         1 <0>         0.2017
     35 H11         2.9433    1.7975    0.9154 H         1 <0>         0.1199
     36 H12         2.5210    0.4043   -0.1089 H         1 <0>         0.1325
     37 H13         5.1248    5.3009   -0.3307 H         1 <0>         0.1055
     38 H14         5.8129    5.5795   -1.9484 H         1 <0>         0.1146
     39 H15         5.2719    8.3607    0.3428 H         1 <0>         0.0821
     40 H16         6.1151    7.2214   -0.7381 H         1 <0>         0.0939
     41 H17         6.2986    8.9225   -2.4845 H         1 <0>         0.0584
     42 H18         6.9052    9.6275   -0.9663 H         1 <0>         0.1100
     43 H19         4.1301    9.5923   -3.2920 H         1 <0>         0.0575
     44 H20         3.1898   10.7747   -2.3490 H         1 <0>         0.1100
     45 H21         2.3427    8.3892   -2.1529 H         1 <0>         0.1023
     46 H22         2.7782    9.1327   -0.5924 H         1 <0>         0.0772
     47 H23         6.7075    1.9491   -2.9784 H         1 <0>         0.3834
     48 H24         5.6565    0.2626   -2.3478 H         1 <0>         0.3884
     49 N5         -3.0374    1.3974    1.4113 N.4       1 <0>        -0.5198
     50 H25        -2.4683    0.7391    1.9562 H         1 <0>         0.4322
     51 H26        -2.9604    2.3362    1.8201 H         1 <0>         0.4388
@<TRIPOS>BOND
     1    1   29 1
     2    1   30 1
     3    1   31 1
     4    1   49 1
     5    2    3 1
     6    2   32 1
     7    2   33 1
     8    2   49 1
     9    3    7 1
    10    3    4 2
    11    4    5 1
    12    4   34 1
    13    5    6 1
    14    5    8 1
    15    6    7 2
    16    8    9 1
    17    8   35 1
    18    8   36 1
    19    9   10 1
    20    9   17 1
    21    9   11 1
    22   11   12 1
    23   11   13 1
    24   11   28 1
    25   13   14 1
    26   13   15 1
    27   13   27 1
    28   15   16 1
    29   15   17 1
    30   15   18 1
    31   18   19 1
    32   18   37 1
    33   18   38 1
    34   19   20 2
    35   19   21 am
    36   21   26 1
    37   21   22 1
    38   22   23 1
    39   22   39 1
    40   22   40 1
    41   23   24 1
    42   23   41 1
    43   23   42 1
    44   24   25 1
    45   25   26 1
    46   25   43 1
    47   25   44 1
    48   26   45 1
    49   26   46 1
    50   27   47 1
    51   28   48 1
    52   49   50 1
    53   49   51 1
@<TRIPOS>MOLECULE
ZINC06622385
   38    41     0     0     0
SMALL
USER_CHARGES

@<TRIPOS>ATOM
      1 C1          0.1589    1.4468   -0.0003 C.3       1 <0>         0.0641
      2 N1         -0.1028    0.0054    0.0088 N.pl3     1 <0>        -0.4256
      3 C2         -0.3694   -0.7930   -1.0916 C.2       1 <0>        -0.1521
      4 C3         -0.4798   -0.5588   -2.4758 C.2       1 <0>         0.6018
      5 O1         -0.3243    0.5631   -2.9249 O.2       1 <0>        -0.5136
      6 N2         -0.7590   -1.5904   -3.2992 N.am      1 <0>        -0.6492
      7 H1         -0.8354   -1.4328   -4.2533 H         1 <0>         0.4419
      8 C4         -0.9326   -2.8333   -2.8177 C.2       1 <0>         0.7125
      9 O2         -1.1832   -3.7385   -3.5900 O.2       1 <0>        -0.5295
     10 N3         -0.8355   -3.1011   -1.5019 N.am      1 <0>        -0.5073
     11 C5         -0.5511   -2.0834   -0.6051 C.2       1 <0>         0.3485
     12 N4         -0.3974   -2.0392    0.7187 N.2       1 <0>        -0.4765
     13 C6         -0.1251   -0.8077    1.0980 C.2       1 <0>         0.5290
     14 N5          0.0987   -0.4049    2.3985 N.pl3     1 <0>        -0.4653
     15 N6          0.0525   -1.2663    3.3575 N.2       1 <0>        -0.0880
     16 C7          0.1586   -0.8675    4.6039 C.2       1 <0>         0.0115
     17 C8          0.1558    0.5252    5.1085 C.ar      1 <0>        -0.1479
     18 C9          0.0501    1.7638    4.4854 C.ar      1 <0>        -0.0702
     19 C10         0.0811    2.9167    5.2441 C.ar      1 <0>        -0.1327
     20 C11         0.2174    2.8386    6.6200 C.ar      1 <0>        -0.0689
     21 C12         0.3235    1.6140    7.2475 C.ar      1 <0>        -0.1295
     22 C13         0.2934    0.4417    6.5000 C.ar      1 <0>         0.1702
     23 N7          0.3790   -0.8948    6.8732 N.am      1 <0>        -0.6483
     24 C14         0.3000   -1.7085    5.8066 C.2       1 <0>         0.5962
     25 O3          0.3413   -2.9249    5.8292 O.2       1 <0>        -0.4718
     26 C15        -1.0317   -4.4696   -1.0174 C.3       1 <0>         0.0826
     27 H2          1.2284    1.6211   -0.1183 H         1 <0>         0.0933
     28 H3         -0.3781    1.9083   -0.8290 H         1 <0>         0.1140
     29 H4         -0.1789    1.8834    0.9396 H         1 <0>         0.0860
     30 H5          0.2908    0.5261    2.5916 H         1 <0>         0.4021
     31 H6         -0.0555    1.8236    3.4122 H         1 <0>         0.1119
     32 H7         -0.0007    3.8806    4.7640 H         1 <0>         0.1363
     33 H8          0.2413    3.7445    7.2074 H         1 <0>         0.1388
     34 H9          0.4298    1.5660    8.3212 H         1 <0>         0.1366
     35 H10         0.4792   -1.2012    7.7881 H         1 <0>         0.4285
     36 H11        -1.2452   -5.1265   -1.8606 H         1 <0>         0.1053
     37 H12        -0.1276   -4.8093   -0.5121 H         1 <0>         0.0829
     38 H13        -1.8683   -4.4914   -0.3189 H         1 <0>         0.0824
@<TRIPOS>BOND
     1    1    2 1
     2    1   27 1
     3    1   28 1
     4    1   29 1
     5    2   13 1
     6    2    3 1
     7    3   11 2
     8    3    4 1
     9    4    5 2
    10    4    6 am
    11    6    7 1
    12    6    8 am
    13    8    9 2
    14    8   10 am
    15   10   11 1
    16   10   26 1
    17   11   12 1
    18   12   13 2
    19   13   14 1
    20   14   15 1
    21   14   30 1
    22   15   16 2
    23   16   24 1
    24   16   17 1
    25   17   22 ar
    26   17   18 ar
    27   18   19 ar
    28   18   31 1
    29   19   20 ar
    30   19   32 1
    31   20   21 ar
    32   20   33 1
    33   21   22 ar
    34   21   34 1
    35   22   23 1
    36   23   24 am
    37   23   35 1
    38   24   25 2
    39   26   36 1
    40   26   37 1
    41   26   38 1
@<TRIPOS>MOLECULE
ZINC45375934
   51    53     0     0     0
SMALL
USER_CHARGES

@<TRIPOS>ATOM
      1 C1         -0.1891    1.7786   -0.3394 C.ar      1 <0>         0.0538
      2 C2          1.0425    2.4084   -0.3241 C.ar      1 <0>        -0.1976
      3 C3          2.1856    1.6533   -0.0832 C.ar      1 <0>         0.4493
      4 N1          2.0992    0.3490    0.1288 N.ar      1 <0>        -0.5059
      5 C4          0.9384   -0.2781    0.1196 C.ar      1 <0>         0.1684
      6 C5         -0.2361    0.4096   -0.1125 C.ar      1 <0>        -0.1582
      7 C6         -1.5557   -0.3182   -0.1194 C.3       1 <0>         0.1836
      8 N2         -1.8497   -0.7833   -1.4771 N.am      1 <0>        -0.7507
      9 C7         -2.9862   -1.4641   -1.7249 C.2       1 <0>         0.7000
     10 O1         -3.7674   -1.6923   -0.8216 O.2       1 <0>        -0.5619
     11 N3         -3.2567   -1.8920   -2.9740 N.am      1 <0>        -0.7338
     12 C8         -4.4920   -2.6320   -3.2433 C.3       1 <0>         0.1523
     13 H1         -4.6590   -3.3654   -2.4544 H         1 <0>         0.1222
     14 C9         -4.3804   -3.3452   -4.5931 C.3       1 <0>        -0.1276
     15 C10        -3.5766   -2.5131   -5.5758 C.3       1 <0>        -0.1234
     16 C11        -4.2565   -1.2185   -5.9823 C.3       1 <0>        -0.1490
     17 C12        -4.3510   -0.2565   -4.7964 C.3       1 <0>         0.0972
     18 N4         -5.5768   -0.5601   -4.0402 N.am      1 <0>        -0.7227
     19 C13        -5.6598   -1.6697   -3.2989 C.2       1 <0>         0.5110
     20 O2         -6.6713   -1.9102   -2.6746 O.2       1 <0>        -0.5270
     21 N5          3.4296    2.2732   -0.0655 N.pl3     1 <0>        -0.5885
     22 C14         3.5730    3.6941   -0.4202 C.3       1 <0>         0.0729
     23 C15         4.3738    4.3902    0.6862 C.3       1 <0>         0.0420
     24 O3          5.5858    3.6676    0.9157 O.3       1 <0>        -0.3628
     25 C16         5.3907    2.3296    1.3799 C.3       1 <0>         0.0464
     26 C17         4.6412    1.5295    0.3145 C.3       1 <0>         0.0595
     27 H2         -1.0941    2.3398   -0.5193 H         1 <0>         0.1772
     28 H3          1.1156    3.4720   -0.4971 H         1 <0>         0.1822
     29 H4          0.9065   -1.3431    0.2963 H         1 <0>         0.2093
     30 H5         -1.5024   -1.1735    0.5541 H         1 <0>         0.0947
     31 H6         -2.3446    0.3568    0.2123 H         1 <0>         0.0984
     32 H7         -1.2265   -0.6012   -2.1978 H         1 <0>         0.3964
     33 H8         -2.6334   -1.7099   -3.6946 H         1 <0>         0.4021
     34 H9         -3.8884   -4.3074   -4.4510 H         1 <0>         0.0889
     35 H10        -5.3798   -3.5099   -4.9956 H         1 <0>         0.0887
     36 H11        -2.6143   -2.2737   -5.1235 H         1 <0>         0.0583
     37 H12        -3.3982   -3.1085   -6.4713 H         1 <0>         0.0798
     38 H13        -3.6829   -0.7478   -6.7807 H         1 <0>         0.0819
     39 H14        -5.2602   -1.4394   -6.3454 H         1 <0>         0.0779
     40 H15        -3.4820   -0.3850   -4.1512 H         1 <0>         0.0793
     41 H16        -4.3907    0.7701   -5.1605 H         1 <0>         0.0863
     42 H17        -6.3297    0.0503   -4.0777 H         1 <0>         0.4022
     43 H18         4.1025    3.7841   -1.3687 H         1 <0>         0.1072
     44 H19         2.5878    4.1527   -0.5043 H         1 <0>         0.1121
     45 H20         4.6099    5.4089    0.3789 H         1 <0>         0.1273
     46 H21         3.7844    4.4130    1.6029 H         1 <0>         0.0675
     47 H22         6.3583    1.8660    1.5716 H         1 <0>         0.1264
     48 H23         4.8050    2.3450    2.2991 H         1 <0>         0.0660
     49 H24         4.3630    0.5553    0.7167 H         1 <0>         0.0892
     50 H25         5.2801    1.3978   -0.5588 H         1 <0>         0.1105
     51 H26         2.9094   -0.1580    0.2947 H         1 <0>         0.4405
@<TRIPOS>BOND
     1    1    6 ar
     2    1    2 ar
     3    1   27 1
     4    2    3 ar
     5    2   28 1
     6    3    4 ar
     7    3   21 1
     8    4    5 ar
     9    4   51 1
    10    5    6 ar
    11    5   29 1
    12    6    7 1
    13    7    8 1
    14    7   30 1
    15    7   31 1
    16    8    9 am
    17    8   32 1
    18    9   10 2
    19    9   11 am
    20   11   12 1
    21   11   33 1
    22   12   13 1
    23   12   19 1
    24   12   14 1
    25   14   15 1
    26   14   34 1
    27   14   35 1
    28   15   16 1
    29   15   36 1
    30   15   37 1
    31   16   17 1
    32   16   38 1
    33   16   39 1
    34   17   18 1
    35   17   40 1
    36   17   41 1
    37   18   19 am
    38   18   42 1
    39   19   20 2
    40   21   26 1
    41   21   22 1
    42   22   23 1
    43   22   43 1
    44   22   44 1
    45   23   24 1
    46   23   45 1
    47   23   46 1
    48   24   25 1
    49   25   26 1
    50   25   47 1
    51   25   48 1
    52   26   49 1
    53   26   50 1
@<TRIPOS>MOLECULE
ZINC62586641
   50    51     0     0     0
SMALL
USER_CHARGES

@<TRIPOS>ATOM
      1 C1         -0.0187    1.5258    0.0104 C.3       1 <0>        -0.1718
      2 C2          0.0021   -0.0041    0.0020 C.3       1 <0>         0.1486
      3 C3          0.7421   -0.5109    1.2415 C.3       1 <0>        -0.1595
      4 C4          0.6554   -2.0374    1.2986 C.3       1 <0>        -0.0151
      5 N1          1.3659   -2.5240    2.4887 N.4       1 <0>        -0.3869
      6 C5          0.6783   -2.0503    3.6973 C.3       1 <0>        -0.0537
      7 C6          1.3858   -3.9929    2.4807 C.3       1 <0>        -0.0483
      8 N2          0.6878   -0.4765   -1.2033 N.am      1 <0>        -0.7080
      9 C7          0.0062   -0.6081   -2.3585 C.2       1 <0>         0.5181
     10 O1         -1.1756   -0.3353   -2.4003 O.2       1 <0>        -0.4924
     11 C8          0.7053   -1.0898   -3.5873 C.2       1 <0>         0.5141
     12 O2          1.8872   -1.3627   -3.5456 O.2       1 <0>        -0.4928
     13 N3          0.0237   -1.2214   -4.7426 N.am      1 <0>        -0.5259
     14 C9         -1.3992   -0.9179   -4.9172 C.3       1 <0>         0.1051
     15 C10        -1.6987   -1.2252   -6.3936 C.3       1 <0>        -0.0936
     16 C11        -0.3774   -1.6947   -6.9595 C.ar      1 <0>        -0.1452
     17 C12         0.5717   -1.6612   -5.9492 C.ar      1 <0>         0.1884
     18 C13         1.8816   -2.0504   -6.2368 C.ar      1 <0>        -0.1465
     19 C14         2.2223   -2.4578   -7.5091 C.ar      1 <0>         0.0076
     20 C15         1.2691   -2.4840   -8.5103 C.ar      1 <0>        -0.6882
     21 C16        -0.0319   -2.1069   -8.2317 C.ar      1 <0>         0.0238
     22 S1          1.7088   -3.0054  -10.1349 S.o2      1 <0>         2.7042
     23 O3          0.7632   -2.4197  -11.0193 O.2       1 <0>        -0.9587
     24 O4          3.1076   -2.7920  -10.2652 O.2       1 <0>        -0.9590
     25 N4          1.4712   -4.6428  -10.2048 N.pl3     1 <0>        -1.2494
     26 H1          1.0039    1.9031    0.0027 H         1 <0>         0.0668
     27 H2         -0.5459    1.8868   -0.8726 H         1 <0>         0.0744
     28 H3         -0.5289    1.8773    0.9072 H         1 <0>         0.0778
     29 H4         -1.0205   -0.3814    0.0098 H         1 <0>         0.1062
     30 H5          1.7879   -0.2080    1.1895 H         1 <0>         0.0984
     31 H6          0.2852   -0.0874    2.1360 H         1 <0>         0.1107
     32 H7         -0.3904   -2.3402    1.3506 H         1 <0>         0.1341
     33 H8          1.1123   -2.4609    0.4042 H         1 <0>         0.1299
     34 H9          1.2055   -2.4113    4.5804 H         1 <0>         0.1264
     35 H10         0.6635   -0.9604    3.7033 H         1 <0>         0.1249
     36 H11        -0.3443   -2.4276    3.7051 H         1 <0>         0.1237
     37 H12         1.8960   -4.3444    1.5839 H         1 <0>         0.1236
     38 H13         1.9130   -4.3539    3.3637 H         1 <0>         0.1267
     39 H14         0.3632   -4.3701    2.4884 H         1 <0>         0.1226
     40 H15         1.6324   -0.6946   -1.1699 H         1 <0>         0.4132
     41 H16        -2.0035   -1.5524   -4.2688 H         1 <0>         0.0985
     42 H17        -1.5905    0.1337   -4.7035 H         1 <0>         0.0989
     43 H18        -2.4481   -2.0126   -6.4737 H         1 <0>         0.1024
     44 H19        -2.0348   -0.3253   -6.9087 H         1 <0>         0.1033
     45 H20         2.6310   -2.0319   -5.4593 H         1 <0>         0.1500
     46 H21         3.2373   -2.7571   -7.7245 H         1 <0>         0.1531
     47 H22        -0.7774   -2.1261   -9.0129 H         1 <0>         0.1523
     48 H23         1.1449   -5.1192   -9.4254 H         1 <0>         0.4161
     49 H24         1.6584   -5.1254  -11.0251 H         1 <0>         0.4234
     50 H25         2.3125   -2.1748    2.4816 H         1 <0>         0.4278
@<TRIPOS>BOND
     1    1    2 1
     2    1   26 1
     3    1   27 1
     4    1   28 1
     5    2    3 1
     6    2    8 1
     7    2   29 1
     8    3    4 1
     9    3   30 1
    10    3   31 1
    11    4    5 1
    12    4   32 1
    13    4   33 1
    14    5    6 1
    15    5    7 1
    16    5   50 1
    17    6   34 1
    18    6   35 1
    19    6   36 1
    20    7   37 1
    21    7   38 1
    22    7   39 1
    23    8    9 am
    24    8   40 1
    25    9   10 2
    26    9   11 1
    27   11   12 2
    28   11   13 am
    29   13   17 1
    30   13   14 1
    31   14   15 1
    32   14   41 1
    33   14   42 1
    34   15   16 1
    35   15   43 1
    36   15   44 1
    37   16   21 ar
    38   16   17 ar
    39   17   18 ar
    40   18   19 ar
    41   18   45 1
    42   19   20 ar
    43   19   46 1
    44   20   21 ar
    45   20   22 1
    46   21   47 1
    47   22   23 2
    48   22   24 2
    49   22   25 1
    50   25   48 1
    51   25   49 1
@<TRIPOS>MOLECULE
ZINC64609608
   54    57     0     0     0
SMALL
USER_CHARGES

@<TRIPOS>ATOM
      1 C1          0.0116    1.8712   -0.1969 C.3       1 <0>        -0.0110
      2 N1         -0.1109    0.4187   -0.0152 N.3       1 <0>        -0.5493
      3 C2          0.5363   -0.0125    1.2311 C.3       1 <0>         0.0516
      4 C3         -0.2209    0.5690    2.4266 C.3       1 <0>        -0.0487
      5 C4          0.4430    0.1268    3.7051 C.2       1 <0>        -0.1412
      6 C5          1.3516    0.7832    4.4298 C.2       1 <0>        -0.0545
      7 N2          1.7124    0.0626    5.5146 N.2       1 <0>        -0.1702
      8 N3          1.1457   -1.0283    5.6163 N.2       1 <0>        -0.1507
      9 C6          0.2289   -1.1663    4.4718 C.3       1 <0>        -0.0708
     10 C7          0.4371   -0.3045   -1.1705 C.3       1 <0>         0.2611
     11 H1          0.3719   -1.3756   -0.9791 H         1 <0>         0.1727
     12 C8         -0.3829    0.0228   -2.3811 C.cat     1 <0>         0.5183
     13 N4          0.0531    0.6097   -3.4475 N.pl3     1 <0>        -0.6124
     14 C9          1.4513    0.9681   -3.5291 C.3       1 <0>         0.2172
     15 H2          2.0281    0.1284   -3.9169 H         1 <0>         0.1609
     16 C10         1.9148    1.3094   -2.0843 C.3       1 <0>         0.1235
     17 H3          1.2383    2.0407   -1.6421 H         1 <0>         0.1244
     18 N5          1.8572    0.0660   -1.3367 N.3       1 <0>        -0.6722
     19 N6          3.2215    1.9200   -2.3157 N.3       1 <0>        -0.4681
     20 O1          3.1353    2.5475   -3.6549 O.3       1 <0>        -0.0261
     21 N7          1.8108    2.1963   -4.2466 N.3       1 <0>        -0.4598
     22 N8         -1.7065   -0.3300   -2.3562 N.pl3     1 <0>        -0.5064
     23 C11        -2.5519    0.0724   -3.4578 C.3       1 <0>         0.0646
     24 C12        -3.1590    1.4665   -3.1645 C.3       1 <0>        -0.1307
     25 C13        -4.1704    1.3698   -2.1009 C.3       1 <0>        -0.1354
     26 C14        -3.6240    0.9050   -0.7544 C.3       1 <0>        -0.1234
     27 C15        -3.5839   -0.6030   -0.7245 C.3       1 <0>        -0.1276
     28 C16        -2.2092   -1.1104   -1.2086 C.3       1 <0>         0.0769
     29 H4          1.0547    2.1653   -0.0802 H         1 <0>         0.0597
     30 H5         -0.3331    2.1430   -1.1946 H         1 <0>         0.0647
     31 H6         -0.5959    2.3832    0.5494 H         1 <0>         0.1073
     32 H7          0.5253   -1.1009    1.2885 H         1 <0>         0.0999
     33 H8          1.5670    0.3418    1.2466 H         1 <0>         0.0581
     34 H9         -0.2099    1.6575    2.3692 H         1 <0>         0.0882
     35 H10        -1.2517    0.2148    2.4111 H         1 <0>         0.0986
     36 H11         1.7452    1.7581    4.1827 H         1 <0>         0.1731
     37 H12        -0.8040   -1.2472    4.8104 H         1 <0>         0.1524
     38 H13         0.5041   -2.0265    3.8615 H         1 <0>         0.1488
     39 H14         2.3128    0.1627   -0.4416 H         1 <0>         0.3851
     40 H15         3.9545    1.2272   -2.2875 H         1 <0>         0.3740
     41 H16         1.1364    2.9266   -4.0739 H         1 <0>         0.3604
     42 H17        -1.9595    0.1194   -4.3716 H         1 <0>         0.0901
     43 H18        -3.3548   -0.6540   -3.5833 H         1 <0>         0.1274
     44 H19        -2.3671    2.1456   -2.8486 H         1 <0>         0.0641
     45 H20        -3.6241    1.8554   -4.0703 H         1 <0>         0.1006
     46 H21        -4.6285    2.3500   -1.9687 H         1 <0>         0.0754
     47 H22        -4.9432    0.6708   -2.4207 H         1 <0>         0.0726
     48 H23        -2.6170    1.2984   -0.6152 H         1 <0>         0.0707
     49 H24        -4.2701    1.2675    0.0451 H         1 <0>         0.0780
     50 H25        -3.7587   -0.9491    0.2942 H         1 <0>         0.0974
     51 H26        -4.3623   -0.9983   -1.3771 H         1 <0>         0.0771
     52 H27        -2.2974   -2.1561   -1.5031 H         1 <0>         0.0990
     53 H28        -1.4949   -1.0344   -0.3887 H         1 <0>         0.1279
     54 H29        -0.5490    0.8063   -4.1821 H         1 <0>         0.4368
@<TRIPOS>BOND
     1    1    2 1
     2    1   29 1
     3    1   30 1
     4    1   31 1
     5    2    3 1
     6    2   10 1
     7    3    4 1
     8    3   32 1
     9    3   33 1
    10    4    5 1
    11    4   34 1
    12    4   35 1
    13    5    9 1
    14    5    6 2
    15    6    7 1
    16    6   36 1
    17    7    8 2
    18    8    9 1
    19    9   37 1
    20    9   38 1
    21   10   11 1
    22   10   18 1
    23   10   12 1
    24   12   13 2
    25   12   22 1
    26   13   14 1
    27   13   54 1
    28   14   15 1
    29   14   21 1
    30   14   16 1
    31   16   17 1
    32   16   18 1
    33   16   19 1
    34   18   39 1
    35   19   20 1
    36   19   40 1
    37   20   21 1
    38   21   41 1
    39   22   28 1
    40   22   23 1
    41   23   24 1
    42   23   42 1
    43   23   43 1
    44   24   25 1
    45   24   44 1
    46   24   45 1
    47   25   26 1
    48   25   46 1
    49   25   47 1
    50   26   27 1
    51   26   48 1
    52   26   49 1
    53   27   28 1
    54   27   50 1
    55   27   51 1
    56   28   52 1
    57   28   53 1
@<TRIPOS>MOLECULE
ZINC05594872
   22    23     0     0     0
SMALL
USER_CHARGES
3-[(5-bromo-2-furyl)methyleneaminoamino]-4H-1,2,4-triazin-5-one
@<TRIPOS>ATOM
      1 C1          4.2150    8.4604    0.0125 C.2       1 <0>        -0.1491
      2 C2          3.6834    9.7630    0.0180 C.2       1 <0>        -0.1596
      3 C3          2.3388    9.6426    0.0301 C.2       1 <0>        -0.0067
      4 O1          2.0224    8.3375    0.0265 O.3       1 <0>        -0.1365
      5 C4          3.1532    7.6028    0.0122 C.2       1 <0>         0.0360
      6 C5          3.2287    6.1391    0.0041 C.2       1 <0>         0.1456
      7 N1          2.1369    5.4312    0.0103 N.2       1 <0>        -0.1852
      8 N2          2.2091    4.0321    0.0026 N.pl3     1 <0>        -0.5453
      9 C6          1.0613    3.2879    0.0091 C.2       1 <0>         0.5952
     10 N3          1.1366    1.9263    0.0016 N.am      1 <0>        -0.6459
     11 H1          2.0230    1.4635   -0.0089 H         1 <0>         0.4239
     12 C7         -0.0145    1.2154    0.0087 C.2       1 <0>         0.5198
     13 O2          0.0021   -0.0041    0.0020 O.2       1 <0>        -0.5069
     14 C8         -1.2353    1.9243    0.0182 C.2       1 <0>        -0.0587
     15 N4         -1.2186    3.2369    0.0301 N.2       1 <0>        -0.1470
     16 N5         -0.1141    3.8933    0.0231 N.2       1 <0>        -0.3413
     17 Br1         1.1046   11.0753    0.0479 Br        1 <0>         0.0645
     18 H2          5.2609    8.1912    0.0068 H         1 <0>         0.1690
     19 H3          4.2451   10.6854    0.0174 H         1 <0>         0.1685
     20 H4          4.1906    5.6481   -0.0070 H         1 <0>         0.1585
     21 H5          3.0731    3.5911   -0.0074 H         1 <0>         0.4023
     22 H6         -2.1747    1.3914    0.0201 H         1 <0>         0.1988
@<TRIPOS>BOND
     1    1    5 2
     2    1    2 1
     3    1   18 1
     4    2    3 2
     5    2   19 1
     6    3    4 1
     7    3   17 1
     8    4    5 1
     9    5    6 1
    10    6    7 2
    11    6   20 1
    12    7    8 1
    13    8    9 1
    14    8   21 1
    15    9   16 2
    16    9   10 1
    17   10   11 1
    18   10   12 am
    19   12   13 2
    20   12   14 1
    21   14   15 2
    22   14   22 1
    23   15   16 1
@<TRIPOS>MOLECULE
ZINC35732524
   36    37     0     0     0
SMALL
USER_CHARGES

@<TRIPOS>ATOM
      1 C1         -0.5059   -0.2799    2.4249 C.3       1 <0>        -0.0878
      2 C2         -0.1989   -0.7687    1.0329 C.2       1 <0>         0.1533
      3 C3         -0.3418   -2.0821    0.5766 C.2       1 <0>        -0.2529
      4 C4          0.0363   -2.1123   -0.7312 C.2       1 <0>         0.4327
      5 N1          0.4031   -0.8577   -1.0789 N.pl3     1 <0>        -0.3816
      6 N2          0.2415   -0.0350    0.0431 N.2       1 <0>        -0.2730
      7 C5          0.8809   -0.4335   -2.3972 C.3       1 <0>         0.0994
      8 N3          0.0440   -3.2309   -1.5597 N.pl3     1 <0>        -0.7190
      9 C6          0.1781   -4.5701   -0.9810 C.3       1 <0>         0.1509
     10 C7          1.6485   -4.8403   -0.6559 C.3       1 <0>        -0.1316
     11 C8          2.4786   -4.7534   -1.9382 C.3       1 <0>        -0.1084
     12 C9          1.9784   -5.7948   -2.9412 C.3       1 <0>         0.1031
     13 C10         0.5079   -5.5246   -3.2663 C.3       1 <0>        -0.1525
     14 C11        -0.3222   -5.6116   -1.9840 C.3       1 <0>        -0.1230
     15 O1          2.7537   -5.7136   -4.1388 O.3       1 <0>        -0.5675
     16 N4         -0.8190   -3.2350    1.3732 N.pl3     1 <0>         0.0696
     17 O2         -1.9984   -3.4984    1.4087 O.2       1 <0>        -0.1434
     18 O3         -0.0294   -3.9131    1.9883 O.3       1 <0>        -0.1473
     19 H1         -1.5474    0.0372    2.4772 H         1 <0>         0.0923
     20 H2         -0.3351   -1.0856    3.1389 H         1 <0>         0.0802
     21 H3          0.1428    0.5623    2.6656 H         1 <0>         0.0913
     22 H4          0.0455   -0.0421   -2.9778 H         1 <0>         0.0835
     23 H5          1.6358    0.3436   -2.2774 H         1 <0>         0.1023
     24 H6          1.3169   -1.2864   -2.9174 H         1 <0>         0.0893
     25 H7         -0.0395   -3.1238   -2.5201 H         1 <0>         0.4095
     26 H8         -0.4133   -4.6320   -0.0675 H         1 <0>         0.0775
     27 H9          2.0050   -4.0984    0.0586 H         1 <0>         0.0765
     28 H10         1.7483   -5.8367   -0.2254 H         1 <0>         0.0859
     29 H11         2.3789   -3.7570   -2.3688 H         1 <0>         0.0649
     30 H12         3.5262   -4.9458   -1.7066 H         1 <0>         0.0744
     31 H13         2.0781   -6.7912   -2.5106 H         1 <0>         0.0604
     32 H14         0.4081   -4.5282   -3.6968 H         1 <0>         0.0658
     33 H15         0.1515   -6.2666   -3.9808 H         1 <0>         0.0751
     34 H16        -0.2224   -6.6079   -1.5534 H         1 <0>         0.0911
     35 H17        -1.3698   -5.4191   -2.2156 H         1 <0>         0.0790
     36 H18         2.4912   -6.3468   -4.8210 H         1 <0>         0.3800
@<TRIPOS>BOND
     1    1    2 1
     2    1   19 1
     3    1   20 1
     4    1   21 1
     5    2    6 2
     6    2    3 1
     7    3    4 2
     8    3   16 1
     9    4    5 1
    10    4    8 1
    11    5    6 1
    12    5    7 1
    13    7   22 1
    14    7   23 1
    15    7   24 1
    16    8    9 1
    17    8   25 1
    18    9   14 1
    19    9   10 1
    20    9   26 1
    21   10   11 1
    22   10   27 1
    23   10   28 1
    24   11   12 1
    25   11   29 1
    26   11   30 1
    27   12   13 1
    28   12   15 1
    29   12   31 1
    30   13   14 1
    31   13   32 1
    32   13   33 1
    33   14   34 1
    34   14   35 1
    35   15   36 1
    36   16   17 2
    37   16   18 1
@<TRIPOS>MOLECULE
ZINC43343691
   38    39     0     0     0
SMALL
USER_CHARGES

@<TRIPOS>ATOM
      1 C1         -0.0187    1.5258    0.0104 C.3       1 <0>        -0.1506
      2 C2          0.0021   -0.0041    0.0020 C.3       1 <0>        -0.0269
      3 C3          0.7074   -0.4901   -1.2379 C.2       1 <0>         0.0322
      4 N1          1.9825   -0.7590   -1.4344 N.2       1 <0>        -0.2321
      5 N2          2.3579   -1.1608   -2.5720 N.2       1 <0>        -0.2996
      6 C4          1.5104   -1.3191   -3.5695 C.2       1 <0>         0.2551
      7 S1          0.0500   -0.8723   -2.8554 S.3       1 <0>         0.0698
      8 N3          1.7561   -1.7477   -4.8696 N.am      1 <0>        -0.6230
      9 C5          3.0095   -2.0675   -5.2482 C.2       1 <0>         0.7010
     10 O1          3.9253   -1.9813   -4.4532 O.2       1 <0>        -0.5213
     11 N4          3.2476   -2.4828   -6.5081 N.am      1 <0>        -0.7274
     12 C6          4.6100   -2.8304   -6.9196 C.3       1 <0>         0.2464
     13 H1          5.3201   -2.1745   -6.4160 H         1 <0>         0.0959
     14 C7          4.9017   -4.2840   -6.5416 C.3       1 <0>        -0.1595
     15 C8          4.7422   -2.6630   -8.4114 C.2       1 <0>        -0.2536
     16 C9          3.6896   -2.6239   -9.3317 C.2       1 <0>         0.0550
     17 N5          4.1975   -2.4666  -10.5271 N.2       1 <0>        -0.2901
     18 N6          5.5915   -2.4005  -10.4052 N.pl3     1 <0>        -0.3694
     19 C10         5.9000   -2.5181   -9.0968 C.2       1 <0>         0.1033
     20 C11         7.2858   -2.4958   -8.5052 C.3       1 <0>        -0.0998
     21 C12         6.5455   -2.2282  -11.5036 C.3       1 <0>         0.0978
     22 H2          1.0039    1.9031    0.0027 H         1 <0>         0.0642
     23 H3         -0.5459    1.8868   -0.8726 H         1 <0>         0.0590
     24 H4         -0.5289    1.8773    0.9072 H         1 <0>         0.0740
     25 H5          0.5293   -0.3651    0.8851 H         1 <0>         0.1066
     26 H6         -1.0205   -0.3814    0.0098 H         1 <0>         0.0951
     27 H7          1.0255   -1.8164   -5.5039 H         1 <0>         0.4239
     28 H8          2.5170   -2.5515   -7.1424 H         1 <0>         0.3968
     29 H9          5.9153   -4.5426   -6.8478 H         1 <0>         0.0678
     30 H10         4.8060   -4.4050   -5.4626 H         1 <0>         0.0649
     31 H11         4.1916   -4.9399   -7.0452 H         1 <0>         0.0583
     32 H12         2.6391   -2.7089   -9.0961 H         1 <0>         0.1786
     33 H13         7.6830   -3.5103   -8.4717 H         1 <0>         0.0853
     34 H14         7.9338   -1.8721   -9.1210 H         1 <0>         0.0740
     35 H15         7.2431   -2.0888   -7.4949 H         1 <0>         0.0902
     36 H16         6.7244   -1.1654  -11.6661 H         1 <0>         0.0770
     37 H17         7.4845   -2.7201  -11.2498 H         1 <0>         0.0891
     38 H18         6.1373   -2.6710  -12.4121 H         1 <0>         0.0919
@<TRIPOS>BOND
     1    1    2 1
     2    1   22 1
     3    1   23 1
     4    1   24 1
     5    2    3 1
     6    2   25 1
     7    2   26 1
     8    3    7 1
     9    3    4 2
    10    4    5 1
    11    5    6 2
    12    6    7 1
    13    6    8 1
    14    8    9 am
    15    8   27 1
    16    9   10 2
    17    9   11 am
    18   11   12 1
    19   11   28 1
    20   12   13 1
    21   12   14 1
    22   12   15 1
    23   14   29 1
    24   14   30 1
    25   14   31 1
    26   15   19 2
    27   15   16 1
    28   16   17 2
    29   16   32 1
    30   17   18 1
    31   18   19 1
    32   18   21 1
    33   19   20 1
    34   20   33 1
    35   20   34 1
    36   20   35 1
    37   21   36 1
    38   21   37 1
    39   21   38 1
@<TRIPOS>MOLECULE
ZINC50829530
   26    28     0     0     0
SMALL
USER_CHARGES

@<TRIPOS>ATOM
      1 C1         -0.0166    1.3733    0.0096 C.ar      1 <0>        -0.1011
      2 C2          1.1698    2.0952    0.0021 C.ar      1 <0>        -0.0811
      3 C3          2.3864    1.4517   -0.0134 C.ar      1 <0>        -0.0679
      4 C4          2.4318    0.0551   -0.0214 C.ar      1 <0>         0.0599
      5 C5          1.2235   -0.6752   -0.0133 C.ar      1 <0>        -0.1533
      6 C6          0.0021   -0.0041    0.0020 C.ar      1 <0>        -0.0510
      7 C7          1.2978   -2.1442   -0.0219 C.2       1 <0>         0.5346
      8 O1          0.2912   -2.8287   -0.0160 O.2       1 <0>        -0.5142
      9 N1          2.5302   -2.7049   -0.0372 N.am      1 <0>        -0.4530
     10 N2          3.6685   -1.8944   -0.0437 N.2       1 <0>         0.0998
     11 N3          3.6125   -0.6121   -0.0371 N.2       1 <0>        -0.1977
     12 C8          2.6703   -4.1631   -0.0465 C.3       1 <0>         0.2145
     13 C9          2.7043   -4.6555   -1.4704 C.2       1 <0>        -0.1382
     14 C10         1.5652   -4.9971   -2.1423 C.2       1 <0>         0.1213
     15 S1          2.1702   -5.4613   -3.6404 S.3       1 <0>         0.2584
     16 N4          3.8010   -5.2065   -3.3516 N.2       1 <0>        -0.2385
     17 N5          3.8310   -4.7747   -2.1362 N.2       1 <0>        -0.1756
     18 N6          0.2449   -4.9687   -1.7005 N.pl3     1 <0>        -0.7828
     19 H1         -0.9615    1.8961    0.0260 H         1 <0>         0.1434
     20 H2          1.1374    3.1747    0.0083 H         1 <0>         0.1454
     21 H3          3.3023    2.0239   -0.0198 H         1 <0>         0.1521
     22 H4         -0.9237   -0.5603    0.0082 H         1 <0>         0.1468
     23 H5          3.5961   -4.4424    0.4567 H         1 <0>         0.1248
     24 H6          1.8244   -4.6128    0.4733 H         1 <0>         0.1137
     25 H7          0.0413   -4.6745   -0.7989 H         1 <0>         0.4239
     26 H8         -0.4713   -5.2431   -2.2944 H         1 <0>         0.4159
@<TRIPOS>BOND
     1    1    6 ar
     2    1    2 ar
     3    1   19 1
     4    2    3 ar
     5    2   20 1
     6    3    4 ar
     7    3   21 1
     8    4   11 1
     9    4    5 ar
    10    5    6 ar
    11    5    7 1
    12    6   22 1
    13    7    8 2
    14    7    9 am
    15    9   10 1
    16    9   12 1
    17   10   11 2
    18   12   13 1
    19   12   23 1
    20   12   24 1
    21   13   17 1
    22   13   14 2
    23   14   15 1
    24   14   18 1
    25   15   16 1
    26   16   17 2
    27   18   25 1
    28   18   26 1
@<TRIPOS>MOLECULE
ZINC59186827
   28    29     0     0     0
SMALL
USER_CHARGES

@<TRIPOS>ATOM
      1 C1         -0.8585    1.0772   -1.9049 C.3       1 <0>         0.0822
      2 N1         -0.6170   -0.2832   -1.4179 N.pl3     1 <0>        -0.5691
      3 C2         -1.3520   -0.9556   -0.4356 C.2       1 <0>         0.0216
      4 C3         -2.4224   -0.4955    0.2570 C.2       1 <0>        -0.0605
      5 C4         -2.8015    0.9222    0.1679 C.ar      1 <0>         0.0056
      6 C5         -1.8768    1.9197    0.4969 C.ar      1 <0>        -0.1108
      7 C6         -2.2400    3.2466    0.4103 C.ar      1 <0>        -0.0669
      8 C7         -3.5157    3.5936   -0.0004 C.ar      1 <0>        -0.1133
      9 C8         -4.4362    2.6132   -0.3275 C.ar      1 <0>        -0.0516
     10 C9         -4.0869    1.2814   -0.2517 C.ar      1 <0>        -0.0439
     11 N2         -5.0709    0.2346   -0.6080 N.pl3     1 <0>         0.0312
     12 O1         -6.2113    0.5403   -0.8679 O.2       1 <0>        -0.1548
     13 O2         -4.7341   -0.9261   -0.6391 O.3       1 <0>        -0.1446
     14 C10        -0.7044   -2.2775   -0.3208 C.2       1 <0>         0.5404
     15 O3         -1.0267   -3.1884    0.4245 O.2       1 <0>        -0.4554
     16 N3          0.3076   -2.2774   -1.1993 N.2       1 <0>        -0.6378
     17 C11         0.3605   -1.1303   -1.8411 C.2       1 <0>         0.6591
     18 N4          1.2811   -0.8269   -2.8065 N.pl3     1 <0>        -0.8015
     19 H1         -0.4631    1.1769   -2.9158 H         1 <0>         0.0837
     20 H2         -1.9303    1.2754   -1.9129 H         1 <0>         0.0798
     21 H3         -0.3618    1.7917   -1.2484 H         1 <0>         0.0783
     22 H4         -2.9968   -1.1703    0.8743 H         1 <0>         0.1744
     23 H5         -0.8814    1.6506    0.8181 H         1 <0>         0.1472
     24 H6         -1.5275    4.0176    0.6638 H         1 <0>         0.1482
     25 H7         -3.7943    4.6350   -0.0655 H         1 <0>         0.1510
     26 H8         -5.4294    2.8921   -0.6470 H         1 <0>         0.1575
     27 H9          1.2631    0.0417   -3.2379 H         1 <0>         0.4155
     28 H10         1.9517   -1.4804   -3.0596 H         1 <0>         0.4345
@<TRIPOS>BOND
     1    1    2 1
     2    1   19 1
     3    1   20 1
     4    1   21 1
     5    2   17 1
     6    2    3 1
     7    3    4 2
     8    3   14 1
     9    4    5 1
    10    4   22 1
    11    5   10 ar
    12    5    6 ar
    13    6    7 ar
    14    6   23 1
    15    7    8 ar
    16    7   24 1
    17    8    9 ar
    18    8   25 1
    19    9   10 ar
    20    9   26 1
    21   10   11 1
    22   11   12 2
    23   11   13 1
    24   14   15 2
    25   14   16 1
    26   16   17 2
    27   17   18 1
    28   18   27 1
    29   18   28 1
@<TRIPOS>MOLECULE
ZINC06919520
   42    45     0     0     0
SMALL
USER_CHARGES
N-(4-isoxazol-5-ylphenyl)-3,5-dioxo-2,6-diazabicyclo[5.4.0]undeca-8,10,12-triene-9-sulfonamide
@<TRIPOS>ATOM
      1 C1          6.7678   -0.7990   -1.7516 C.ar      1 <0>        -0.0871
      2 C2          6.5430    0.5528   -1.8915 C.ar      1 <0>        -0.1075
      3 C3          6.5185    1.3749   -0.7698 C.ar      1 <0>         0.1323
      4 C4          6.7260    0.8361    0.4957 C.ar      1 <0>        -0.0989
      5 C5          6.9452   -0.5159    0.6427 C.ar      1 <0>        -0.0805
      6 C6          6.9708   -1.3440   -0.4818 C.ar      1 <0>        -0.0120
      7 C7          7.2127   -2.7931   -0.3283 C.2       1 <0>         0.0051
      8 C8          7.4329   -3.4713    0.8406 C.2       1 <0>        -0.2132
      9 C9          7.6004   -4.8088    0.4291 C.2       1 <0>        -0.0068
     10 N1          7.4817   -4.8169   -0.8685 N.2       1 <0>        -0.3599
     11 O1          7.2668   -3.7119   -1.3093 O.3       1 <0>         0.1080
     12 N2          6.2911    2.7428   -0.9147 N.pl3     1 <0>        -1.0621
     13 S1          4.8189    3.3848   -0.5112 S.o2      1 <0>         2.6907
     14 O2          4.8783    4.7685   -0.8292 O.2       1 <0>        -0.9441
     15 O3          4.5157    2.9158    0.7955 O.2       1 <0>        -0.9382
     16 C10         3.6251    2.6704   -1.5923 C.ar      1 <0>        -0.6669
     17 C11         2.9006    1.5631   -1.1898 C.ar      1 <0>        -0.0016
     18 C12         1.9673    1.0079   -2.0380 C.ar      1 <0>        -0.1352
     19 C13         1.7420    1.5507   -3.3053 C.ar      1 <0>         0.1883
     20 C14         2.4681    2.6594   -3.7088 C.ar      1 <0>         0.1061
     21 C15         3.4112    3.2141   -2.8403 C.ar      1 <0>        -0.0105
     22 N3          2.3196    3.2717   -4.9496 N.am      1 <0>        -0.6608
     23 C16         1.1636    3.4978   -5.5686 C.2       1 <0>         0.5281
     24 O4          1.1624    4.0771   -6.6343 O.2       1 <0>        -0.5051
     25 C17        -0.1440    3.0473   -4.9704 C.3       1 <0>        -0.1649
     26 C18        -0.1149    1.5444   -4.8597 C.2       1 <0>         0.5292
     27 O5         -0.9258    0.8866   -5.4770 O.2       1 <0>        -0.5012
     28 N4          0.7815    0.9258   -4.0949 N.am      1 <0>        -0.6641
     29 H1          6.7874   -1.4367   -2.6230 H         1 <0>         0.1392
     30 H2          6.3859    0.9748   -2.8731 H         1 <0>         0.1369
     31 H3          6.7107    1.4777    1.3643 H         1 <0>         0.1459
     32 H4          7.1022   -0.9343    1.6259 H         1 <0>         0.1392
     33 H5          7.4688   -3.0740    1.8442 H         1 <0>         0.1772
     34 H6          7.7935   -5.6602    1.0649 H         1 <0>         0.1952
     35 H7          6.9953    3.3185   -1.2518 H         1 <0>         0.4298
     36 H8          3.0659    1.1346   -0.2123 H         1 <0>         0.1551
     37 H9          1.4039    0.1433   -1.7196 H         1 <0>         0.1493
     38 H10         3.9790    4.0789   -3.1504 H         1 <0>         0.1538
     39 H11         3.1283    3.5579   -5.4024 H         1 <0>         0.4162
     40 H12        -0.2674    3.4890   -3.9816 H         1 <0>         0.1296
     41 H13        -0.9679    3.3527   -5.6154 H         1 <0>         0.1470
     42 H14         0.7665   -0.0441   -4.0904 H         1 <0>         0.4182
@<TRIPOS>BOND
     1    1    6 ar
     2    1    2 ar
     3    1   29 1
     4    2    3 ar
     5    2   30 1
     6    3    4 ar
     7    3   12 1
     8    4    5 ar
     9    4   31 1
    10    5    6 ar
    11    5   32 1
    12    6    7 1
    13    7   11 1
    14    7    8 2
    15    8    9 1
    16    8   33 1
    17    9   10 2
    18    9   34 1
    19   10   11 1
    20   12   13 1
    21   12   35 1
    22   13   14 2
    23   13   15 2
    24   13   16 1
    25   16   21 ar
    26   16   17 ar
    27   17   18 ar
    28   17   36 1
    29   18   19 ar
    30   18   37 1
    31   19   28 1
    32   19   20 ar
    33   20   21 ar
    34   20   22 1
    35   21   38 1
    36   22   23 am
    37   22   39 1
    38   23   24 2
    39   23   25 1
    40   25   26 1
    41   25   40 1
    42   25   41 1
    43   26   27 2
    44   26   28 am
    45   28   42 1
@<TRIPOS>MOLECULE
ZINC22055732
   47    48     0     0     0
SMALL
USER_CHARGES
[(2R)-2-methylbutyl] N-[1-[(2R,3R,4R,5R)-3,4-dihydroxy-5-methyl-tetrahydrofuran-2-yl]-5-fluoro-2-oxo-pyrimidin-4-yl]carbamate
@<TRIPOS>ATOM
      1 C1          2.3010   -4.3521   -0.2944 C.3       1 <0>        -0.1543
      2 C2          2.4905   -2.8396   -0.1627 C.3       1 <0>        -0.1196
      3 C3          1.1247   -2.1650   -0.0203 C.3       1 <0>        -0.0915
      4 H1          0.4828   -2.4547   -0.8653 H         1 <0>         0.0845
      5 C4          0.4719   -2.6068    1.2910 C.3       1 <0>        -0.1517
      6 C5          1.3046   -0.6456   -0.0139 C.3       1 <0>         0.0879
      7 O1          0.0021   -0.0041    0.0020 O.3       1 <0>        -0.3615
      8 C6         -0.0162    1.3419    0.0094 C.2       1 <0>         0.6398
      9 O2          1.0275    1.9636    0.0028 O.2       1 <0>        -0.4868
     10 N1         -1.1924    1.9999    0.0186 N.am      1 <0>        -0.6366
     11 C7         -1.2112    3.3822    0.0262 C.2       1 <0>         0.4874
     12 C8         -2.4395    4.0743    0.0358 C.2       1 <0>        -0.0721
     13 C9         -2.4290    5.4303    0.0430 C.2       1 <0>         0.1793
     14 N2         -1.2338    6.0871    0.0409 N.am      1 <0>        -0.5198
     15 C10        -0.0792    5.3960    0.0321 C.2       1 <0>         0.6387
     16 O3          0.9811    5.9995    0.0307 O.2       1 <0>        -0.4811
     17 N3         -0.0746    4.0638    0.0300 N.2       1 <0>        -0.5174
     18 C11        -1.2068    7.5518    0.0487 C.3       1 <0>         0.3076
     19 H2         -2.2518    7.8713   -0.0771 H         1 <0>         0.1215
     20 C12        -0.5073    8.0700    1.3249 C.3       1 <0>         0.0994
     21 H3          0.0953    7.3186    1.8561 H         1 <0>         0.0939
     22 C13         0.2819    9.3082    0.8440 C.3       1 <0>         0.0703
     23 H4          0.0785   10.2306    1.4077 H         1 <0>         0.0835
     24 C14        -0.0341    9.3916   -0.6658 C.3       1 <0>         0.0495
     25 H5         -0.8625   10.0716   -0.9137 H         1 <0>         0.0855
     26 O4         -0.3984    8.0455   -1.0415 O.3       1 <0>        -0.3471
     27 C15         1.2023    9.8458   -1.4444 C.3       1 <0>        -0.1574
     28 O5          1.6831    9.1209    1.0527 O.3       1 <0>        -0.5800
     29 O6         -1.4738    8.4434    2.3090 O.3       1 <0>        -0.5963
     30 F1         -3.6086    3.3971    0.0372 F         1 <0>        -0.1150
     31 H6          3.2830   -4.8371   -0.3968 H         1 <0>         0.0581
     32 H7          1.6904   -4.5691   -1.1833 H         1 <0>         0.0562
     33 H8          1.7934   -4.7375    0.6022 H         1 <0>         0.0595
     34 H9          3.1011   -2.6226    0.7262 H         1 <0>         0.0680
     35 H10         2.9981   -2.4542   -1.0592 H         1 <0>         0.0674
     36 H11        -0.5101   -2.1218    1.3934 H         1 <0>         0.0614
     37 H12         1.1138   -2.3171    2.1360 H         1 <0>         0.0559
     38 H13         0.3426   -3.6992    1.2864 H         1 <0>         0.0626
     39 H14         1.8712   -0.3472    0.8805 H         1 <0>         0.0764
     40 H15         1.8541   -0.3376   -0.9157 H         1 <0>         0.0762
     41 H16        -2.1375    1.4371    0.0201 H         1 <0>         0.4631
     42 H17        -3.3564    5.9838    0.0501 H         1 <0>         0.1941
     43 H18         0.9611    9.9001   -2.5163 H         1 <0>         0.0693
     44 H19         2.0189    9.1256   -1.2883 H         1 <0>         0.0811
     45 H20         1.5157   10.8383   -1.0884 H         1 <0>         0.0746
     46 H21         2.3925    9.9106    0.7644 H         1 <0>         0.4098
     47 H22        -1.1443    8.8352    3.2826 H         1 <0>         0.4255
@<TRIPOS>BOND
     1    1    2 1
     2    1   31 1
     3    1   32 1
     4    1   33 1
     5    2    3 1
     6    2   34 1
     7    2   35 1
     8    3    4 1
     9    3    5 1
    10    3    6 1
    11    5   36 1
    12    5   37 1
    13    5   38 1
    14    6    7 1
    15    6   39 1
    16    6   40 1
    17    7    8 1
    18    8    9 2
    19    8   10 am
    20   10   11 1
    21   10   41 1
    22   11   17 2
    23   11   12 1
    24   12   13 2
    25   12   30 1
    26   13   14 1
    27   13   42 1
    28   14   15 am
    29   14   18 1
    30   15   16 2
    31   15   17 1
    32   18   19 1
    33   18   26 1
    34   18   20 1
    35   20   21 1
    36   20   22 1
    37   20   29 1
    38   22   23 1
    39   22   24 1
    40   22   28 1
    41   24   25 1
    42   24   26 1
    43   24   27 1
    44   27   43 1
    45   27   44 1
    46   27   45 1
    47   28   46 1
    48   29   47 1
@<TRIPOS>MOLECULE
ZINC45899014
   44    45     0     0     0
SMALL
USER_CHARGES

@<TRIPOS>ATOM
      1 C1         -0.0221    1.5186    0.0004 C.3       1 <0>        -0.1497
      2 C2         -0.0021   -0.0113    0.0027 C.3       1 <0>        -0.1429
      3 C3          0.7087   -0.5139   -1.2554 C.3       1 <0>         0.1219
      4 N1          0.7278   -1.9788   -1.2532 N.am      1 <0>        -0.5298
      5 C4         -0.2153   -2.7810   -1.7859 C.2       1 <0>         0.6540
      6 N2          0.1701   -4.0570   -1.5775 N.am      1 <0>        -0.5418
      7 N3          1.3926   -4.0193   -0.8928 N.2       1 <0>        -0.2844
      8 C5          1.7150   -2.7710   -0.7120 C.2       1 <0>         0.2452
      9 S1          3.1704   -2.1919    0.0949 S.3       1 <0>         0.1018
     10 C6          4.0428   -3.7100    0.5691 C.3       1 <0>        -0.1171
     11 H1          4.1935   -4.3330   -0.3126 H         1 <0>         0.1325
     12 C7          3.2101   -4.4763    1.5987 C.3       1 <0>        -0.1490
     13 C8          5.3795   -3.3551    1.1677 C.2       1 <0>         0.5451
     14 O1          5.5447   -2.2693    1.6810 O.2       1 <0>        -0.4385
     15 N4          6.3912   -4.2448    1.1325 N.am      1 <0>        -0.6807
     16 C9          7.5867   -3.9274    1.6680 C.2       1 <0>         0.6978
     17 O2          7.7523   -2.8389    2.1825 O.2       1 <0>        -0.5016
     18 N5          8.5984   -4.8171    1.6327 N.am      1 <0>        -0.6760
     19 C10         9.8624   -4.4551    2.0999 C.ar      1 <0>         0.1852
     20 C11         9.9803   -3.6003    3.1909 C.ar      1 <0>        -0.1211
     21 C12        11.2260   -3.2405    3.6544 C.ar      1 <0>        -0.0477
     22 C13        12.3729   -3.7356    3.0273 C.ar      1 <0>        -0.0417
     23 C14        12.2506   -4.5947    1.9315 C.ar      1 <0>        -0.0487
     24 C15        11.0016   -4.9543    1.4769 C.ar      1 <0>        -0.1429
     25 C16        13.6701   -3.3633    3.5061 C.1       1 <0>         0.2518
     26 N6         14.6992   -3.0680    3.8859 N.1       1 <0>        -0.4134
     27 O3         -1.2313   -2.4195   -2.3527 O.2       1 <0>        -0.5447
     28 H2          1.0007    1.8953   -0.0141 H         1 <0>         0.0612
     29 H3         -0.5526    1.8737   -0.8830 H         1 <0>         0.0596
     30 H4         -0.5285    1.8767    0.8968 H         1 <0>         0.0644
     31 H5          0.5285   -0.3664    0.8862 H         1 <0>         0.0735
     32 H6         -1.0248   -0.3880    0.0173 H         1 <0>         0.0712
     33 H7          0.1782   -0.1588   -2.1389 H         1 <0>         0.1028
     34 H8          1.7315   -0.1372   -1.2699 H         1 <0>         0.0982
     35 H9          2.2433   -4.7330    1.1657 H         1 <0>         0.0905
     36 H10         3.7343   -5.3885    1.8837 H         1 <0>         0.0780
     37 H11         3.0594   -3.8534    2.4804 H         1 <0>         0.0799
     38 H12         6.2590   -5.1136    0.7218 H         1 <0>         0.4160
     39 H13         8.4479   -5.7092    1.2827 H         1 <0>         0.4143
     40 H14         9.0937   -3.2181    3.6749 H         1 <0>         0.1516
     41 H15        11.3168   -2.5762    4.5011 H         1 <0>         0.1389
     42 H16        13.1346   -4.9789    1.4443 H         1 <0>         0.1396
     43 H17        10.9063   -5.6212    0.6328 H         1 <0>         0.1392
     44 H18        -0.3105   -4.8539   -1.8509 H         1 <0>         0.4575
@<TRIPOS>BOND
     1    1    2 1
     2    1   28 1
     3    1   29 1
     4    1   30 1
     5    2    3 1
     6    2   31 1
     7    2   32 1
     8    3   33 1
     9    3   34 1
    10    3    4 1
    11    4    5 am
    12    4    8 1
    13    5   27 2
    14    5    6 am
    15    6    7 1
    16    6   44 1
    17    7    8 2
    18    8    9 1
    19    9   10 1
    20   10   11 1
    21   10   12 1
    22   10   13 1
    23   12   35 1
    24   12   36 1
    25   12   37 1
    26   13   14 2
    27   13   15 am
    28   15   16 am
    29   15   38 1
    30   16   17 2
    31   16   18 am
    32   18   19 1
    33   18   39 1
    34   19   24 ar
    35   19   20 ar
    36   20   21 ar
    37   20   40 1
    38   21   22 ar
    39   21   41 1
    40   22   23 ar
    41   22   25 1
    42   23   24 ar
    43   23   42 1
    44   24   43 1
    45   25   26 3
@<TRIPOS>MOLECULE
ZINC41236893
   49    52     0     0     0
SMALL
USER_CHARGES

@<TRIPOS>ATOM
      1 C1         -0.0494    1.5278    0.0089 C.3       1 <0>        -0.1617
      2 C2         -0.0014   -0.0014    0.0013 C.3       1 <0>         0.1884
      3 C3          0.7409   -0.4867    1.2197 C.ar      1 <0>        -0.0883
      4 C4          2.1233   -0.4719    1.2365 C.ar      1 <0>        -0.1018
      5 C5          2.8087   -0.9155    2.3520 C.ar      1 <0>        -0.0936
      6 C6          2.1110   -1.3770    3.4564 C.ar      1 <0>         0.0365
      7 C7          0.7185   -1.3921    3.4395 C.ar      1 <0>         0.0374
      8 C8          0.0382   -0.9405    2.3202 C.ar      1 <0>        -0.0855
      9 O1          0.2730   -1.8854    4.6317 O.3       1 <0>        -0.3066
     10 C9          1.4058   -2.5524    5.2191 C.3       1 <0>         0.2128
     11 O2          2.5379   -1.8609    4.6593 O.3       1 <0>        -0.3071
     12 N1          0.6880   -0.4624   -1.2063 N.am      1 <0>        -0.6940
     13 C10         0.0044   -0.6069   -2.3589 C.2       1 <0>         0.5141
     14 O3         -1.1822   -0.3552   -2.3962 O.2       1 <0>        -0.5115
     15 C11         0.7071   -1.0768   -3.5899 C.2       1 <0>         0.5079
     16 O4          1.8940   -1.3286   -3.5525 O.2       1 <0>        -0.5009
     17 N2          0.0236   -1.2214   -4.7424 N.am      1 <0>        -0.6387
     18 C12         0.6982   -1.5713   -5.9163 C.ar      1 <0>         0.1059
     19 C13         0.2859   -1.0499   -7.1364 C.ar      1 <0>        -0.1028
     20 C14         0.9519   -1.3954   -8.2948 C.ar      1 <0>        -0.1364
     21 C15         2.0338   -2.2646   -8.2411 C.ar      1 <0>         0.1821
     22 C16         2.4458   -2.7864   -7.0217 C.ar      1 <0>        -0.1424
     23 C17         1.7844   -2.4359   -5.8621 C.ar      1 <0>        -0.0859
     24 N3          2.7092   -2.6155   -9.4169 N.am      1 <0>        -0.5701
     25 C18         3.7857   -3.6124   -9.5161 C.3       1 <0>         0.0838
     26 C19         4.1625   -3.6015  -11.0103 C.3       1 <0>         0.0912
     27 N4          3.2582   -2.5996  -11.5944 N.am      1 <0>        -0.7357
     28 C20         2.4731   -2.1005  -10.6307 C.2       1 <0>         0.6998
     29 O5          1.6256   -1.2537  -10.8382 O.2       1 <0>        -0.5655
     30 H1          0.9663    1.9233   -0.0030 H         1 <0>         0.0645
     31 H2         -0.5863    1.8788   -0.8724 H         1 <0>         0.0696
     32 H3         -0.5623    1.8708    0.9074 H         1 <0>         0.0754
     33 H4         -1.0171   -0.3969    0.0132 H         1 <0>         0.1065
     34 H5          2.6688   -0.1132    0.3762 H         1 <0>         0.1386
     35 H6          3.8886   -0.9028    2.3624 H         1 <0>         0.1404
     36 H7         -1.0417   -0.9468    2.3060 H         1 <0>         0.1404
     37 H8          1.3915   -2.4480    6.3040 H         1 <0>         0.1346
     38 H9          1.4207   -3.6045    4.9347 H         1 <0>         0.0872
     39 H10         1.6364   -0.6636   -1.1765 H         1 <0>         0.4135
     40 H11        -0.9363   -1.0827   -4.7576 H         1 <0>         0.4235
     41 H12        -0.5558   -0.3745   -7.1783 H         1 <0>         0.1342
     42 H13         0.6315   -0.9901   -9.2432 H         1 <0>         0.1642
     43 H14         3.2867   -3.4628   -6.9803 H         1 <0>         0.1304
     44 H15         2.1078   -2.8379   -4.9133 H         1 <0>         0.1444
     45 H16         4.6381   -3.3171   -8.9044 H         1 <0>         0.0933
     46 H17         3.4238   -4.5970   -9.2200 H         1 <0>         0.0934
     47 H18         5.2020   -3.3008  -11.1406 H         1 <0>         0.0899
     48 H19         3.9877   -4.5807  -11.4562 H         1 <0>         0.0897
     49 H20         3.2317   -2.3438  -12.5297 H         1 <0>         0.4350
@<TRIPOS>BOND
     1    1    2 1
     2    1   30 1
     3    1   31 1
     4    1   32 1
     5    2    3 1
     6    2   12 1
     7    2   33 1
     8    3    8 ar
     9    3    4 ar
    10    4    5 ar
    11    4   34 1
    12    5    6 ar
    13    5   35 1
    14    6   11 1
    15    6    7 ar
    16    7    8 ar
    17    7    9 1
    18    8   36 1
    19    9   10 1
    20   10   11 1
    21   10   37 1
    22   10   38 1
    23   12   13 am
    24   12   39 1
    25   13   14 2
    26   13   15 1
    27   15   16 2
    28   15   17 am
    29   17   18 1
    30   17   40 1
    31   18   23 ar
    32   18   19 ar
    33   19   20 ar
    34   19   41 1
    35   20   21 ar
    36   20   42 1
    37   21   22 ar
    38   21   24 1
    39   22   23 ar
    40   22   43 1
    41   23   44 1
    42   24   28 am
    43   24   25 1
    44   25   26 1
    45   25   45 1
    46   25   46 1
    47   26   27 1
    48   26   47 1
    49   26   48 1
    50   27   28 am
    51   27   49 1
    52   28   29 2
@<TRIPOS>MOLECULE
ZINC66466248
   43    46     0     0     0
SMALL
USER_CHARGES

@<TRIPOS>ATOM
      1 C1         -0.0187    1.5258    0.0104 C.3       1 <0>        -0.1461
      2 C2          0.0021   -0.0041    0.0020 C.3       1 <0>         0.1638
      3 C3         -1.4025   -0.5572    0.1392 C.2       1 <0>         0.5370
      4 O1         -2.3322   -0.3918   -0.6211 O.2       1 <0>        -0.4527
      5 N1         -1.4027   -1.2718    1.2819 N.am      1 <0>        -0.6784
      6 C4         -0.2059   -1.2473    1.8794 C.2       1 <0>         0.7065
      7 O2          0.0398   -1.8188    2.9235 O.2       1 <0>        -0.5342
      8 N2          0.6953   -0.5196    1.1952 N.am      1 <0>        -0.7178
      9 C5          0.6570   -0.5170   -1.2546 C.ar      1 <0>        -0.0855
     10 C6          1.7778   -1.3217   -1.1709 C.ar      1 <0>        -0.1015
     11 C7          2.3785   -1.7922   -2.3236 C.ar      1 <0>        -0.0922
     12 C8          1.8582   -1.4583   -3.5600 C.ar      1 <0>        -0.1090
     13 C9          0.7368   -0.6542   -3.6436 C.ar      1 <0>        -0.0902
     14 C10         0.1336   -0.1873   -2.4908 C.ar      1 <0>        -0.0941
     15 C11         2.5137   -1.9703   -4.8166 C.3       1 <0>         0.1685
     16 N3          1.9201   -3.2573   -5.1874 N.pl3     1 <0>        -0.6556
     17 C12         2.3631   -3.9231   -6.3121 C.2       1 <0>         0.4360
     18 N4          3.2999   -3.5703   -7.1628 N.2       1 <0>        -0.5893
     19 C13         3.6328   -4.3285   -8.2306 C.ar      1 <0>         0.1910
     20 C14         4.6134   -4.0667   -9.2150 C.ar      1 <0>        -0.0878
     21 C15         4.8268   -4.9481  -10.2427 C.ar      1 <0>        -0.0364
     22 C16         4.0944   -6.1209  -10.3555 C.ar      1 <0>        -0.0641
     23 C17         3.1270   -6.4087   -9.4099 C.ar      1 <0>         0.0297
     24 C18         2.9069   -5.5321   -8.3773 C.ar      1 <0>        -0.1899
     25 S1          1.8137   -5.4882   -6.9775 S.3       1 <0>         0.0264
     26 N5          4.3454   -7.0543  -11.4766 N.pl3     1 <0>         0.0413
     27 O3          5.1924   -6.7964  -12.2999 O.2       1 <0>        -0.1544
     28 O4          3.7035   -8.0747  -11.5689 O.3       1 <0>        -0.1615
     29 H1          1.0039    1.9031    0.0027 H         1 <0>         0.0851
     30 H2         -0.5459    1.8868   -0.8726 H         1 <0>         0.0883
     31 H3         -0.5289    1.8773    0.9072 H         1 <0>         0.0749
     32 H4         -2.1752   -1.7450    1.6285 H         1 <0>         0.4362
     33 H5          1.6211   -0.3648    1.4398 H         1 <0>         0.4430
     34 H6          2.1843   -1.5826   -0.2050 H         1 <0>         0.1306
     35 H7          3.2546   -2.4203   -2.2582 H         1 <0>         0.1318
     36 H8          0.3305   -0.3931   -4.6096 H         1 <0>         0.1334
     37 H9         -0.7447    0.4378   -2.5561 H         1 <0>         0.1376
     38 H10         2.3612   -1.2539   -5.6238 H         1 <0>         0.0891
     39 H11         3.5819   -2.0996   -4.6425 H         1 <0>         0.0887
     40 H12         1.2157   -3.6416   -4.6423 H         1 <0>         0.4267
     41 H13         5.2005   -3.1621   -9.1567 H         1 <0>         0.1546
     42 H14         5.5820   -4.7243  -10.9816 H         1 <0>         0.1610
     43 H15         2.5486   -7.3178   -9.4836 H         1 <0>         0.1598
@<TRIPOS>BOND
     1    1    2 1
     2    1   29 1
     3    1   30 1
     4    1   31 1
     5    2    8 1
     6    2    3 1
     7    2    9 1
     8    3    4 2
     9    3    5 am
    10    5    6 am
    11    5   32 1
    12    6    7 2
    13    6    8 am
    14    8   33 1
    15    9   14 ar
    16    9   10 ar
    17   10   11 ar
    18   10   34 1
    19   11   12 ar
    20   11   35 1
    21   12   13 ar
    22   12   15 1
    23   13   14 ar
    24   13   36 1
    25   14   37 1
    26   15   16 1
    27   15   38 1
    28   15   39 1
    29   16   17 1
    30   16   40 1
    31   17   25 1
    32   17   18 2
    33   18   19 1
    34   19   24 ar
    35   19   20 ar
    36   20   21 ar
    37   20   41 1
    38   21   22 ar
    39   21   42 1
    40   22   23 ar
    41   22   26 1
    42   23   24 ar
    43   23   43 1
    44   24   25 1
    45   26   27 2
    46   26   28 1
@<TRIPOS>MOLECULE
ZINC01091791
   59    64     0     0     0
SMALL
USER_CHARGES
3-[[4,6-bis(2-pyridylamino)-1,3,5-triazin-2-yl]amino]-5-(2-furylmethylene)-2-phenyl-imidazol-4-one
@<TRIPOS>ATOM
      1 C1          0.6377   11.2354    3.2195 C.ar      1 <0>        -0.0927
      2 C2          1.8059   11.9757    3.2643 C.ar      1 <0>        -0.1223
      3 C3          2.7665   11.8139    2.2877 C.ar      1 <0>        -0.0598
      4 C4          2.5582   10.9002    1.2525 C.ar      1 <0>        -0.0501
      5 C5          1.3748   10.1602    1.2106 C.ar      1 <0>        -0.0990
      6 C6          0.4248   10.3281    2.1966 C.ar      1 <0>        -0.1209
      7 C7          3.5827   10.7215    0.2031 C.2       1 <0>         0.3930
      8 N1          4.7174   11.3681    0.1571 N.2       1 <0>        -0.4611
      9 C8          5.4195   10.9681   -0.9384 C.2       1 <0>        -0.0506
     10 C9          6.6667   11.4219   -1.3408 C.2       1 <0>         0.0854
     11 C10         7.1341   11.1378   -2.6375 C.2       1 <0>        -0.0401
     12 C11         8.4172   11.3578   -3.1095 C.2       1 <0>        -0.1315
     13 C12         8.4301   10.9268   -4.4425 C.2       1 <0>        -0.2300
     14 C13         7.1862   10.4792   -4.7317 C.2       1 <0>         0.0094
     15 O1          6.4106   10.6071   -3.6464 O.3       1 <0>        -0.1281
     16 C14         4.5879    9.9579   -1.6090 C.2       1 <0>         0.5202
     17 O2          4.8495    9.3473   -2.6304 O.2       1 <0>        -0.4451
     18 N2          3.4721    9.8497   -0.8546 N.am      1 <0>        -0.3567
     19 N3          2.3874    9.0005   -1.1093 N.pl3     1 <0>        -0.4611
     20 C15         2.4980    7.6470   -0.8632 C.ar      1 <0>         0.6626
     21 N4          3.6339    7.1490   -0.3848 N.ar      1 <0>        -0.6410
     22 C16         3.7405    5.8454   -0.1482 C.ar      1 <0>         0.6689
     23 N5          2.7095    5.0405   -0.3848 N.ar      1 <0>        -0.6428
     24 C17         1.5754    5.5376   -0.8683 C.ar      1 <0>         0.6636
     25 N6          1.4687    6.8411   -1.1049 N.ar      1 <0>        -0.6443
     26 N7          0.5052    4.6996   -1.1196 N.pl3     1 <0>        -0.6014
     27 C18        -0.6365    5.1962   -1.7432 C.ar      1 <0>         0.3566
     28 C19        -0.9045    6.5605   -1.7049 C.ar      1 <0>        -0.1853
     29 C20        -2.0421    7.0404   -2.3285 C.ar      1 <0>        -0.0593
     30 C21        -2.8767    6.1360   -2.9718 C.ar      1 <0>        -0.1935
     31 C22        -2.5523    4.7942   -2.9654 C.ar      1 <0>         0.1259
     32 N8         -1.4569    4.3657   -2.3674 N.ar      1 <0>        -0.5136
     33 N9          4.9218    5.3274    0.3488 N.pl3     1 <0>        -0.6014
     34 C23         5.0816    3.9494    0.4695 C.ar      1 <0>         0.3559
     35 C24         3.9605    3.1300    0.5488 C.ar      1 <0>        -0.1837
     36 C25         4.1335    1.7624    0.6629 C.ar      1 <0>        -0.0587
     37 C26         5.4272    1.2594    0.7052 C.ar      1 <0>        -0.1934
     38 C27         6.4944    2.1316    0.6272 C.ar      1 <0>         0.1253
     39 N10         6.2990    3.4316    0.5133 N.ar      1 <0>        -0.5140
     40 H1         -0.1111   11.3660    3.9867 H         1 <0>         0.1293
     41 H2          1.9657   12.6821    4.0654 H         1 <0>         0.1337
     42 H3          3.6775   12.3929    2.3234 H         1 <0>         0.1423
     43 H4          1.2054    9.4550    0.4103 H         1 <0>         0.1275
     44 H5         -0.4893    9.7538    2.1675 H         1 <0>         0.1299
     45 H6          7.2791   11.9934   -0.6591 H         1 <0>         0.1778
     46 H7          9.2457   11.7770   -2.5579 H         1 <0>         0.1613
     47 H8          9.2745   10.9512   -5.1153 H         1 <0>         0.1569
     48 H9          6.8691   10.0827   -5.6849 H         1 <0>         0.2059
     49 H10         1.5586    9.3638   -1.4587 H         1 <0>         0.4468
     50 H11         0.5494    3.7655   -0.8616 H         1 <0>         0.4327
     51 H12        -0.2335    7.2360   -1.1950 H         1 <0>         0.1841
     52 H13        -2.2762    8.0947   -2.3151 H         1 <0>         0.1373
     53 H14        -3.7726    6.4783   -3.4683 H         1 <0>         0.1364
     54 H15        -3.2010    4.0866   -3.4604 H         1 <0>         0.1610
     55 H16         5.6395    5.9239    0.6134 H         1 <0>         0.4321
     56 H17         2.9683    3.5555    0.5176 H         1 <0>         0.1840
     57 H18         3.2818    1.1010    0.7221 H         1 <0>         0.1380
     58 H19         5.5966    0.1969    0.7986 H         1 <0>         0.1368
     59 H20         7.5023    1.7449    0.6594 H         1 <0>         0.1610
@<TRIPOS>BOND
     1    1    6 ar
     2    1    2 ar
     3    1   40 1
     4    2    3 ar
     5    2   41 1
     6    3    4 ar
     7    3   42 1
     8    4    5 ar
     9    4    7 1
    10    5    6 ar
    11    5   43 1
    12    6   44 1
    13    7   18 1
    14    7    8 2
    15    8    9 1
    16    9   10 2
    17    9   16 1
    18   10   11 1
    19   10   45 1
    20   11   15 1
    21   11   12 2
    22   12   13 1
    23   12   46 1
    24   13   14 2
    25   13   47 1
    26   14   15 1
    27   14   48 1
    28   16   17 2
    29   16   18 am
    30   18   19 1
    31   19   20 1
    32   19   49 1
    33   20   25 ar
    34   20   21 ar
    35   21   22 ar
    36   22   23 ar
    37   22   33 1
    38   23   24 ar
    39   24   25 ar
    40   24   26 1
    41   26   27 1
    42   26   50 1
    43   27   32 ar
    44   27   28 ar
    45   28   29 ar
    46   28   51 1
    47   29   30 ar
    48   29   52 1
    49   30   31 ar
    50   30   53 1
    51   31   32 ar
    52   31   54 1
    53   33   34 1
    54   33   55 1
    55   34   39 ar
    56   34   35 ar
    57   35   36 ar
    58   35   56 1
    59   36   37 ar
    60   36   57 1
    61   37   38 ar
    62   37   58 1
    63   38   39 ar
    64   38   59 1
@<TRIPOS>MOLECULE
ZINC17296147
   57    60     0     0     0
SMALL
USER_CHARGES
N-[2-(1H-indol-3-yl)ethyl]-4-[(2-methoxy-5-nitro-phenyl)sulfamoyl]benzamide
@<TRIPOS>ATOM
      1 C1         -5.1841    5.3712    0.3523 C.3       1 <0>         0.0185
      2 O1         -5.1288    3.9477    0.2399 O.3       1 <0>        -0.2996
      3 C2         -3.8988    3.3706    0.3026 C.ar      1 <0>         0.1675
      4 C3         -2.7708    4.1569    0.4690 C.ar      1 <0>        -0.1872
      5 C4         -1.5214    3.5683    0.5386 C.ar      1 <0>        -0.0219
      6 C5         -1.3927    2.1960    0.4312 C.ar      1 <0>        -0.0535
      7 C6         -2.5134    1.4042    0.2651 C.ar      1 <0>        -0.0819
      8 C7         -3.7705    1.9872    0.2000 C.ar      1 <0>         0.1298
      9 N1         -4.9069    1.1877    0.0313 N.pl3     1 <0>        -1.0412
     10 S1         -4.9803   -0.3071    0.7401 S.o2      1 <0>         2.6849
     11 O2         -6.2887   -0.8067    0.5000 O.2       1 <0>        -0.9333
     12 O3         -3.8116   -1.0065    0.3349 O.2       1 <0>        -0.9351
     13 C8         -4.8449   -0.0658    2.4802 C.ar      1 <0>        -0.6593
     14 C9         -3.5989   -0.0734    3.0817 C.ar      1 <0>        -0.0259
     15 C10        -3.4855    0.1198    4.4430 C.ar      1 <0>        -0.1074
     16 C11        -4.6321    0.3126    5.2152 C.ar      1 <0>        -0.0715
     17 C12        -5.8864    0.3139    4.6029 C.ar      1 <0>        -0.0796
     18 C13        -5.9854    0.1248    3.2400 C.ar      1 <0>        -0.0183
     19 C14        -4.5185    0.5151    6.6753 C.2       1 <0>         0.5519
     20 O4         -5.5187    0.6832    7.3453 O.2       1 <0>        -0.5221
     21 N2         -3.3059    0.5133    7.2636 N.am      1 <0>        -0.7231
     22 C15        -3.1933    0.7139    8.7104 C.3       1 <0>         0.1230
     23 C16        -1.7195    0.6675    9.1185 C.3       1 <0>        -0.0530
     24 C17        -1.6036    0.8739   10.6068 C.2       1 <0>        -0.1746
     25 C18        -1.3671    2.0360   11.2358 C.2       1 <0>         0.0628
     26 N3         -1.3320    1.8355   12.5889 N.pl3     1 <0>        -0.5944
     27 H1         -1.1790    2.5277   13.2510 H         1 <0>         0.4174
     28 C19        -1.5421    0.5041   12.8704 C.ar      1 <0>         0.0948
     29 C20        -1.7215   -0.1566   11.6412 C.ar      1 <0>        -0.1003
     30 C21        -1.9565   -1.5324   11.6178 C.ar      1 <0>        -0.0720
     31 C22        -2.0112   -2.2314   12.7909 C.ar      1 <0>        -0.1437
     32 C23        -1.8345   -1.5844   14.0059 C.ar      1 <0>        -0.0974
     33 C24        -1.6016   -0.2271   14.0521 C.ar      1 <0>        -0.1299
     34 N4         -0.0521    1.5726    0.5005 N.pl3     1 <0>         0.0305
     35 O5          0.0625    0.3633    0.4110 O.2       1 <0>        -0.1481
     36 O6          0.9369    2.2693    0.6418 O.3       1 <0>        -0.1583
     37 H2         -4.7659    5.6764    1.3115 H         1 <0>         0.0655
     38 H3         -4.6075    5.8221   -0.4554 H         1 <0>         0.0661
     39 H4         -6.2209    5.7009    0.2866 H         1 <0>         0.1126
     40 H5         -2.8674    5.2296    0.5487 H         1 <0>         0.1601
     41 H6         -0.6434    4.1827    0.6731 H         1 <0>         0.1625
     42 H7         -2.4105    0.3320    0.1862 H         1 <0>         0.1963
     43 H8         -5.6515    1.5093   -0.5008 H         1 <0>         0.4376
     44 H9         -2.7128   -0.2268    2.4836 H         1 <0>         0.1460
     45 H10        -2.5121    0.1177    4.9107 H         1 <0>         0.1390
     46 H11        -6.7774    0.4629    5.1948 H         1 <0>         0.1509
     47 H12        -6.9553    0.1259    2.7649 H         1 <0>         0.1516
     48 H13        -2.5077    0.3792    6.7290 H         1 <0>         0.4014
     49 H14        -3.6136    1.6838    8.9765 H         1 <0>         0.0718
     50 H15        -3.7392   -0.0736    9.2300 H         1 <0>         0.0739
     51 H16        -1.2991   -0.3023    8.8524 H         1 <0>         0.0786
     52 H17        -1.1736    1.4550    8.5989 H         1 <0>         0.0772
     53 H18        -1.2272    2.9885   10.7464 H         1 <0>         0.1704
     54 H19        -2.0947   -2.0426   10.6760 H         1 <0>         0.1204
     55 H20        -2.1936   -3.2957   12.7723 H         1 <0>         0.1231
     56 H21        -1.8803   -2.1504   14.9246 H         1 <0>         0.1260
     57 H22        -1.4661    0.2674   15.0026 H         1 <0>         0.1202
@<TRIPOS>BOND
     1    1    2 1
     2    1   37 1
     3    1   38 1
     4    1   39 1
     5    2    3 1
     6    3    8 ar
     7    3    4 ar
     8    4    5 ar
     9    4   40 1
    10    5    6 ar
    11    5   41 1
    12    6    7 ar
    13    6   34 1
    14    7    8 ar
    15    7   42 1
    16    8    9 1
    17    9   10 1
    18    9   43 1
    19   10   11 2
    20   10   12 2
    21   10   13 1
    22   13   18 ar
    23   13   14 ar
    24   14   15 ar
    25   14   44 1
    26   15   16 ar
    27   15   45 1
    28   16   17 ar
    29   16   19 1
    30   17   18 ar
    31   17   46 1
    32   18   47 1
    33   19   20 2
    34   19   21 am
    35   21   22 1
    36   21   48 1
    37   22   23 1
    38   22   49 1
    39   22   50 1
    40   23   24 1
    41   23   51 1
    42   23   52 1
    43   24   29 1
    44   24   25 2
    45   25   26 1
    46   25   53 1
    47   26   27 1
    48   26   28 1
    49   28   33 ar
    50   28   29 ar
    51   29   30 ar
    52   30   31 ar
    53   30   54 1
    54   31   32 ar
    55   31   55 1
    56   32   33 ar
    57   32   56 1
    58   33   57 1
    59   34   35 2
    60   34   36 1
@<TRIPOS>MOLECULE
ZINC15304295
   56    59     0     0     0
SMALL
USER_CHARGES

@<TRIPOS>ATOM
      1 C1          0.4831    1.3031    0.2756 C.3       1 <0>        -0.1728
      2 C2          0.4629   -0.2255    0.3386 C.3       1 <0>        -0.0620
      3 H1          1.0765   -0.6364   -0.4632 H         1 <0>         0.1030
      4 C3         -0.9727   -0.7306    0.2029 C.3       1 <0>        -0.1122
      5 C4         -1.8269   -0.1694    1.3272 C.2       1 <0>         0.2808
      6 C5         -1.2917    0.0640    2.5380 C.2       1 <0>        -0.3110
      7 C6         -2.0235    0.6138    3.7386 C.3       1 <0>         0.2850
      8 H2         -1.7755    0.0004    4.6049 H         1 <0>         0.1057
      9 N1         -3.4639    0.6505    3.6000 N.pl3     1 <0>        -0.7649
     10 C7         -4.0726    1.4661    2.6475 C.ar      1 <0>         0.1581
     11 C8         -4.8852    2.5269    3.0144 C.ar      1 <0>        -0.1303
     12 C9         -5.4296    3.3374    2.0333 C.ar      1 <0>        -0.1033
     13 C10        -5.1642    3.0952    0.6978 C.ar      1 <0>        -0.1062
     14 C11        -4.3671    2.0253    0.3272 C.ar      1 <0>        -0.1051
     15 C12        -3.8400    1.2016    1.3063 C.ar      1 <0>         0.1100
     16 N2         -3.1260    0.0487    1.0006 N.pl3     1 <0>        -0.6810
     17 C13        -1.5357    2.0167    3.9939 C.ar      1 <0>        -0.0597
     18 C14        -1.7490    3.0036    3.0495 C.ar      1 <0>        -0.0674
     19 C15        -1.3035    4.2920    3.2789 C.ar      1 <0>        -0.0456
     20 C16        -0.6420    4.5967    4.4577 C.ar      1 <0>         0.1412
     21 C17        -0.4277    3.6034    5.4085 C.ar      1 <0>         0.1025
     22 C18        -0.8811    2.3151    5.1743 C.ar      1 <0>        -0.1180
     23 O1          0.2210    3.8975    6.5669 O.3       1 <0>        -0.2976
     24 C19         0.4053    2.8282    7.4968 C.3       1 <0>         0.0213
     25 O2         -0.2026    5.8635    4.6847 O.3       1 <0>        -0.4601
     26 N3         -1.5327    5.3458    2.2651 N.pl3     1 <0>         0.0394
     27 O3         -2.1095    5.0799    1.2364 O.2       1 <0>        -0.1592
     28 O4         -1.1430    6.4726    2.4658 O.3       1 <0>        -0.1393
     29 C20         0.0800   -0.1926    2.7711 C.2       1 <0>         0.4119
     30 O5          0.5319    0.0025    3.8824 O.2       1 <0>        -0.4527
     31 C21         0.9975   -0.6970    1.6962 C.3       1 <0>        -0.1292
     32 H3          1.0250   -1.7864    1.7203 H         1 <0>         0.1433
     33 C22         2.3840   -0.1475    1.9125 C.2       1 <0>         0.4762
     34 O6          2.8956    0.5504    1.0692 O.2       1 <0>        -0.4926
     35 O7          3.0505   -0.4333    3.0420 O.3       1 <0>        -0.3338
     36 C23         4.3603    0.1212    3.1803 C.3       1 <0>         0.0326
     37 H4          1.5076    1.6578    0.3881 H         1 <0>         0.0893
     38 H5          0.0880    1.6324   -0.6854 H         1 <0>         0.0654
     39 H6         -0.1319    1.7080    1.0793 H         1 <0>         0.0495
     40 H7         -1.3801   -0.4101   -0.7559 H         1 <0>         0.1012
     41 H8         -0.9795   -1.8194    0.2519 H         1 <0>         0.0994
     42 H9         -4.0137    0.0991    4.1784 H         1 <0>         0.4037
     43 H10        -5.0916    2.7198    4.0568 H         1 <0>         0.1247
     44 H11        -6.0661    4.1640    2.3125 H         1 <0>         0.1255
     45 H12        -5.5806    3.7431   -0.0593 H         1 <0>         0.1309
     46 H13        -4.1589    1.8356   -0.7155 H         1 <0>         0.1310
     47 H14        -3.5909   -0.6522    0.5174 H         1 <0>         0.4098
     48 H15        -2.2645    2.7674    2.1303 H         1 <0>         0.1544
     49 H16        -0.7197    1.5434    5.9124 H         1 <0>         0.1519
     50 H17         0.9349    3.1976    8.3750 H         1 <0>         0.1086
     51 H18        -0.5664    2.4360    7.7967 H         1 <0>         0.0590
     52 H19         0.9881    2.0354    7.0279 H         1 <0>         0.0640
     53 H20        -0.8471    6.4291    5.1319 H         1 <0>         0.3995
     54 H21         4.9936   -0.2357    2.3682 H         1 <0>         0.0614
     55 H22         4.3001    1.2089    3.1430 H         1 <0>         0.0599
     56 H23         4.7861   -0.1866    4.1353 H         1 <0>         0.1035
@<TRIPOS>BOND
     1    1    2 1
     2    1   37 1
     3    1   38 1
     4    1   39 1
     5    2    3 1
     6    2   31 1
     7    2    4 1
     8    4    5 1
     9    4   40 1
    10    4   41 1
    11    5   16 1
    12    5    6 2
    13    6    7 1
    14    6   29 1
    15    7    8 1
    16    7    9 1
    17    7   17 1
    18    9   10 1
    19    9   42 1
    20   10   15 ar
    21   10   11 ar
    22   11   12 ar
    23   11   43 1
    24   12   13 ar
    25   12   44 1
    26   13   14 ar
    27   13   45 1
    28   14   15 ar
    29   14   46 1
    30   15   16 1
    31   16   47 1
    32   17   22 ar
    33   17   18 ar
    34   18   19 ar
    35   18   48 1
    36   19   20 ar
    37   19   26 1
    38   20   21 ar
    39   20   25 1
    40   21   22 ar
    41   21   23 1
    42   22   49 1
    43   23   24 1
    44   24   50 1
    45   24   51 1
    46   24   52 1
    47   25   53 1
    48   26   27 2
    49   26   28 1
    50   29   30 2
    51   29   31 1
    52   31   32 1
    53   31   33 1
    54   33   34 2
    55   33   35 1
    56   35   36 1
    57   36   54 1
    58   36   55 1
    59   36   56 1
@<TRIPOS>MOLECULE
ZINC43218921
   54    58     0     0     0
SMALL
USER_CHARGES

@<TRIPOS>ATOM
      1 C1         -0.7695   -0.2363    0.3234 C.ar      1 <0>        -0.1012
      2 C2          0.1718    0.6830    0.7473 C.ar      1 <0>        -0.1110
      3 C3          1.5190    0.3929    0.6387 C.ar      1 <0>        -0.1440
      4 C4          1.9249   -0.8167    0.1066 C.ar      1 <0>        -0.1089
      5 C5          0.9836   -1.7363   -0.3165 C.ar      1 <0>        -0.0387
      6 C6         -0.3636   -1.4457   -0.2092 C.ar      1 <0>        -0.1034
      7 C7          3.3936   -1.1325   -0.0128 C.3       1 <0>         0.0490
      8 C8          3.7576   -2.3405    0.8754 C.3       1 <0>        -0.1120
      9 H1          3.7299   -3.2846    0.3315 H         1 <0>         0.1814
     10 C9          5.1659   -2.0104    1.4389 C.3       1 <0>        -0.1251
     11 H2          5.9037   -2.7799    1.2116 H         1 <0>         0.1806
     12 C10         5.5268   -0.6416    0.8254 C.3       1 <0>         0.1179
     13 H3          6.1197   -0.7754   -0.0794 H         1 <0>         0.1825
     14 N1          4.2089   -0.0121    0.5218 N.4       1 <0>        -0.5032
     15 C11         6.2783    0.1999    1.8246 C.ar      1 <0>        -0.1567
     16 C12         5.6101    1.1567    2.5641 C.ar      1 <0>        -0.1162
     17 C13         6.2989    1.9292    3.4805 C.ar      1 <0>        -0.1065
     18 C14         7.6579    1.7463    3.6598 C.ar      1 <0>        -0.0786
     19 C15         8.3304    0.7908    2.9232 C.ar      1 <0>        -0.1263
     20 C16         7.6403    0.0105    2.0066 C.ar      1 <0>         0.1619
     21 O1          8.2987   -0.9341    1.2847 O.3       1 <0>        -0.4906
     22 C17         4.9212   -1.8575    2.9233 C.2       1 <0>         0.5228
     23 O2          5.7682   -1.5938    3.7495 O.2       1 <0>        -0.4224
     24 N2          3.6238   -2.0578    3.1824 N.am      1 <0>        -0.5359
     25 C18         2.8675   -2.3454    2.0978 C.2       1 <0>         0.5231
     26 O3          1.6759   -2.5682    2.0960 O.2       1 <0>        -0.4113
     27 C19         3.0887   -1.9834    4.4762 C.ar      1 <0>         0.1131
     28 C20         2.2119   -0.9593    4.8084 C.ar      1 <0>        -0.0521
     29 C21         1.6864   -0.8885    6.0835 C.ar      1 <0>        -0.1001
     30 C22         2.0328   -1.8363    7.0292 C.ar      1 <0>        -0.0407
     31 C23         2.9059   -2.8569    6.7015 C.ar      1 <0>        -0.0344
     32 C24         3.4300   -2.9365    5.4258 C.ar      1 <0>        -0.0371
     33 N3          3.2745   -3.8691    7.7167 N.pl3     1 <0>         0.0306
     34 O4          2.8120   -3.8032    8.8317 O.2       1 <0>        -0.1430
     35 O5          4.0380   -4.7618    7.4307 O.3       1 <0>        -0.1493
     36 C25         3.7556   -1.4063   -1.4498 C.2       1 <0>         0.5160
     37 O6          4.5753   -0.7038   -2.0165 O.co2     1 <0>        -0.6535
     38 O7          3.2289   -2.3304   -2.0457 O.co2     1 <0>        -0.6099
     39 H4         -1.8221   -0.0116    0.4124 H         1 <0>         0.1287
     40 H5         -0.1453    1.6279    1.1631 H         1 <0>         0.1281
     41 H6          2.2545    1.1114    0.9692 H         1 <0>         0.1010
     42 H7          1.3007   -2.6812   -0.7326 H         1 <0>         0.1450
     43 H8         -1.0990   -2.1640   -0.5401 H         1 <0>         0.1322
     44 H9          4.3193    0.7083   -0.1760 H         1 <0>         0.4443
     45 H10         4.5488    1.3014    2.4259 H         1 <0>         0.1080
     46 H11         5.7749    2.6771    4.0571 H         1 <0>         0.1345
     47 H12         8.1939    2.3514    4.3761 H         1 <0>         0.1374
     48 H13         9.3917    0.6484    3.0636 H         1 <0>         0.1418
     49 H14         8.6563   -0.6103    0.4467 H         1 <0>         0.4014
     50 H15         1.9413   -0.2187    4.0704 H         1 <0>         0.1435
     51 H16         1.0046   -0.0920    6.3426 H         1 <0>         0.1608
     52 H17         1.6206   -1.7789    8.0258 H         1 <0>         0.1643
     53 H18         4.1082   -3.7367    5.1689 H         1 <0>         0.1582
     54 H19         3.7863    0.3649    1.3569 H         1 <0>         0.4040
@<TRIPOS>BOND
     1    1    6 ar
     2    1    2 ar
     3    1   39 1
     4    2    3 ar
     5    2   40 1
     6    3    4 ar
     7    3   41 1
     8    4    5 ar
     9    4    7 1
    10    5    6 ar
    11    5   42 1
    12    6   43 1
    13    7   14 1
    14    7    8 1
    15    7   36 1
    16    8    9 1
    17    8   25 1
    18    8   10 1
    19   10   11 1
    20   10   12 1
    21   10   22 1
    22   12   13 1
    23   12   14 1
    24   12   15 1
    25   14   44 1
    26   14   54 1
    27   15   20 ar
    28   15   16 ar
    29   16   17 ar
    30   16   45 1
    31   17   18 ar
    32   17   46 1
    33   18   19 ar
    34   18   47 1
    35   19   20 ar
    36   19   48 1
    37   20   21 1
    38   21   49 1
    39   22   23 2
    40   22   24 am
    41   24   25 am
    42   24   27 1
    43   25   26 2
    44   27   32 ar
    45   27   28 ar
    46   28   29 ar
    47   28   50 1
    48   29   30 ar
    49   29   51 1
    50   30   31 ar
    51   30   52 1
    52   31   32 ar
    53   31   33 1
    54   32   53 1
    55   33   34 2
    56   33   35 1
    57   36   37 2
    58   36   38 1
@<TRIPOS>MOLECULE
ZINC59016146
   60    63     0     0     0
SMALL
USER_CHARGES

@<TRIPOS>ATOM
      1 C1          0.8143    1.2383   -0.1414 C.3       1 <0>        -0.0934
      2 C2         -0.0095   -0.0146    0.0089 C.2       1 <0>         0.1394
      3 N1         -0.3874   -0.4055    1.1878 N.2       1 <0>        -0.1964
      4 N2         -1.0264   -1.6424    1.3443 N.pl3     1 <0>        -0.5527
      5 C3         -1.5306   -2.0089    2.5785 C.2       1 <0>         0.5615
      6 N3         -1.4813   -1.2888    3.6796 N.2       1 <0>        -0.5178
      7 C4         -2.0664   -1.9560    4.6800 C.2       1 <0>         0.2144
      8 N4         -2.4962   -3.1102    4.2285 N.2       1 <0>        -0.3238
      9 N5         -2.1653   -3.1655    2.8650 N.pl3     1 <0>        -0.5042
     10 S1         -2.2332   -1.3783    6.3362 S.3       1 <0>         0.1254
     11 C5         -3.1022   -2.7252    7.1854 C.3       1 <0>        -0.1635
     12 C6         -3.3117   -2.3551    8.6312 C.2       1 <0>         0.5347
     13 O1         -2.9139   -1.2877    9.0476 O.2       1 <0>        -0.4754
     14 N6         -3.9410   -3.2102    9.4613 N.am      1 <0>        -0.6149
     15 C7         -4.1340   -2.8693   10.7929 C.2       1 <0>         0.0522
     16 C8         -4.7488   -3.6179   11.7830 C.2       1 <0>        -0.1352
     17 C9         -4.8243   -3.0316   13.1092 C.2       1 <0>        -0.0568
     18 C10        -4.2707   -1.8025   13.2022 C.2       1 <0>        -0.2213
     19 S2         -3.6692   -1.4578   11.5749 S.3       1 <0>         0.3197
     20 C11        -4.1916   -0.9418   14.4249 C.3       1 <0>        -0.0358
     21 C12        -5.1663   -1.5010   15.4719 C.3       1 <0>        -0.1158
     22 C13        -4.9577   -3.0139   15.5853 C.3       1 <0>        -0.1198
     23 C14        -5.4601   -3.7057   14.3161 C.3       1 <0>        -0.0614
     24 C15        -5.2881   -4.9160   11.5098 C.1       1 <0>         0.2689
     25 N7         -5.7159   -5.9458   11.2931 N.1       1 <0>        -0.4257
     26 C16        -0.3863   -0.7964   -1.1828 C.ar      1 <0>        -0.0983
     27 C17        -1.6549   -1.3757   -1.2681 C.ar      1 <0>        -0.1175
     28 C18        -2.0053   -2.1067   -2.3838 C.ar      1 <0>        -0.1693
     29 C19        -1.1008   -2.2692   -3.4229 C.ar      1 <0>         0.1170
     30 C20         0.1659   -1.6949   -3.3446 C.ar      1 <0>         0.1071
     31 C21         0.5222   -0.9551   -2.2324 C.ar      1 <0>        -0.1415
     32 O2          1.0500   -1.8568   -4.3652 O.3       1 <0>        -0.3025
     33 C22         2.3308   -1.2404   -4.2179 C.3       1 <0>         0.0224
     34 O3         -1.4513   -2.9912   -4.5203 O.3       1 <0>        -0.3013
     35 C23        -2.7653   -3.5527   -4.5349 C.3       1 <0>         0.0231
     36 H1          1.8732    0.9858   -0.0858 H         1 <0>         0.0874
     37 H2          0.6010    1.6999   -1.1055 H         1 <0>         0.0840
     38 H3          0.5646    1.9355    0.6585 H         1 <0>         0.0888
     39 H4         -1.1150   -2.2418    0.5868 H         1 <0>         0.4036
     40 H5         -4.0684   -2.8914    6.7092 H         1 <0>         0.1319
     41 H6         -2.5065   -3.6361    7.1262 H         1 <0>         0.1320
     42 H7         -4.2591   -4.0639    9.1282 H         1 <0>         0.4237
     43 H8         -3.1765   -0.9594   14.8216 H         1 <0>         0.0852
     44 H9         -4.4705    0.0813   14.1728 H         1 <0>         0.0841
     45 H10        -4.9736   -1.0326   16.4370 H         1 <0>         0.0752
     46 H11        -6.1912   -1.2960   15.1628 H         1 <0>         0.0692
     47 H12        -3.8962   -3.2242   15.7162 H         1 <0>         0.0685
     48 H13        -5.5092   -3.3918   16.4461 H         1 <0>         0.0712
     49 H14        -6.5447   -3.6161   14.2557 H         1 <0>         0.0805
     50 H15        -5.1785   -4.7585   14.3375 H         1 <0>         0.0747
     51 H16        -2.3608   -1.2514   -0.4602 H         1 <0>         0.1301
     52 H17        -2.9862   -2.5540   -2.4485 H         1 <0>         0.1422
     53 H18         1.5021   -0.5050   -2.1728 H         1 <0>         0.1465
     54 H19         2.2052   -0.1633   -4.1074 H         1 <0>         0.0591
     55 H20         2.8273   -1.6409   -3.3341 H         1 <0>         0.0572
     56 H21         2.9370   -1.4469   -5.1000 H         1 <0>         0.1049
     57 H22        -2.9153   -4.1022   -5.4642 H         1 <0>         0.1052
     58 H23        -2.8801   -4.2308   -3.6893 H         1 <0>         0.0566
     59 H24        -3.5028   -2.7534   -4.4624 H         1 <0>         0.0581
     60 H25        -2.3538   -3.8921    2.2507 H         1 <0>         0.4386
@<TRIPOS>BOND
     1    1    2 1
     2    1   36 1
     3    1   37 1
     4    1   38 1
     5    2    3 2
     6    2   26 1
     7    3    4 1
     8    4    5 1
     9    4   39 1
    10    5    9 1
    11    5    6 2
    12    6    7 1
    13    7    8 2
    14    7   10 1
    15    8    9 1
    16    9   60 1
    17   10   11 1
    18   11   12 1
    19   11   40 1
    20   11   41 1
    21   12   13 2
    22   12   14 am
    23   14   15 1
    24   14   42 1
    25   15   19 1
    26   15   16 2
    27   16   17 1
    28   16   24 1
    29   17   23 1
    30   17   18 2
    31   18   19 1
    32   18   20 1
    33   20   21 1
    34   20   43 1
    35   20   44 1
    36   21   22 1
    37   21   45 1
    38   21   46 1
    39   22   23 1
    40   22   47 1
    41   22   48 1
    42   23   49 1
    43   23   50 1
    44   24   25 3
    45   26   31 ar
    46   26   27 ar
    47   27   28 ar
    48   27   51 1
    49   28   29 ar
    50   28   52 1
    51   29   30 ar
    52   29   34 1
    53   30   31 ar
    54   30   32 1
    55   31   53 1
    56   32   33 1
    57   33   54 1
    58   33   55 1
    59   33   56 1
    60   34   35 1
    61   35   57 1
    62   35   58 1
    63   35   59 1
@<TRIPOS>MOLECULE
ZINC02634682
   54    57     0     0     0
SMALL
USER_CHARGES
4-(benzo[1,3]dioxol-5-ylcarbonylaminocarbamoyl)-N-(2-methoxy-5-nitro-phenyl)-benzenesulfonamide
@<TRIPOS>ATOM
      1 C1         14.0111   -5.7041    1.1849 C.3       1 <0>         0.0184
      2 O1         13.9063   -5.1687    2.5056 O.3       1 <0>        -0.2997
      3 C2         13.9571   -3.8151    2.6289 C.ar      1 <0>         0.1676
      4 C3         14.0993   -3.0203    1.5036 C.ar      1 <0>        -0.1869
      5 C4         14.1561   -1.6445    1.6310 C.ar      1 <0>        -0.0212
      6 C5         14.0660   -1.0578    2.8796 C.ar      1 <0>        -0.0532
      7 C6         13.9187   -1.8437    4.0072 C.ar      1 <0>        -0.0823
      8 C7         13.8609   -3.2245    3.8871 C.ar      1 <0>         0.1283
      9 N1         13.7123   -4.0224    5.0273 N.pl3     1 <0>        -1.0405
     10 S1         12.7798   -3.4960    6.2905 S.o2      1 <0>         2.6849
     11 O2         13.2617   -2.2059    6.6410 O.2       1 <0>        -0.9333
     12 O3         12.7188   -4.5658    7.2237 O.2       1 <0>        -0.9320
     13 C8         11.1447   -3.2723    5.6732 C.ar      1 <0>        -0.6549
     14 C9         10.2440   -4.3218    5.7127 C.ar      1 <0>        -0.0174
     15 C10         8.9620   -4.1530    5.2319 C.ar      1 <0>        -0.0727
     16 C11         8.5745   -2.9202    4.7043 C.ar      1 <0>        -0.0670
     17 C12         9.4898   -1.8673    4.6622 C.ar      1 <0>        -0.1051
     18 C13        10.7670   -2.0477    5.1516 C.ar      1 <0>        -0.0235
     19 C14         7.2024   -2.7324    4.1868 C.2       1 <0>         0.5582
     20 O4          6.4090   -3.6526    4.2202 O.2       1 <0>        -0.5213
     21 N2          6.8313   -1.5408    3.6780 N.am      1 <0>        -0.5123
     22 N3          5.5311   -1.3628    3.1876 N.am      1 <0>        -0.5167
     23 C15         5.1600   -0.1712    2.6788 C.2       1 <0>         0.5707
     24 O5          5.9537    0.7493    2.6455 O.2       1 <0>        -0.5261
     25 C16         3.7901    0.0164    2.1622 C.ar      1 <0>        -0.1250
     26 C17         2.8768   -1.0401    2.1997 C.ar      1 <0>        -0.0694
     27 C18         1.5988   -0.8634    1.7165 C.ar      1 <0>        -0.1062
     28 C19         1.2135    0.3630    1.1915 C.ar      1 <0>         0.0697
     29 C20         2.1209    1.4223    1.1514 C.ar      1 <0>         0.0266
     30 C21         3.4037    1.2508    1.6339 C.ar      1 <0>        -0.0345
     31 O6          1.5022    2.5047    0.5949 O.3       1 <0>        -0.3020
     32 C22         0.0924    2.2221    0.6714 C.3       1 <0>         0.2116
     33 O7          0.0302    0.7838    0.6604 O.3       1 <0>        -0.3022
     34 N4         14.1280    0.4152    3.0094 N.pl3     1 <0>         0.0300
     35 O8         14.0492    0.9336    4.1087 O.2       1 <0>        -0.1476
     36 O9         14.2577    1.1091    2.0168 O.3       1 <0>        -0.1572
     37 H1         13.9563   -6.7919    1.2284 H         1 <0>         0.1126
     38 H2         13.1938   -5.3234    0.5725 H         1 <0>         0.0656
     39 H3         14.9633   -5.4056    0.7463 H         1 <0>         0.0662
     40 H4         14.1699   -3.4754    0.5267 H         1 <0>         0.1603
     41 H5         14.2707   -1.0266    0.7526 H         1 <0>         0.1629
     42 H6         13.8489   -1.3828    4.9814 H         1 <0>         0.1964
     43 H7         14.1555   -4.8838    5.0776 H         1 <0>         0.4379
     44 H8         10.5451   -5.2751    6.1212 H         1 <0>         0.1547
     45 H9          8.2597   -4.9728    5.2639 H         1 <0>         0.1541
     46 H10         9.1976   -0.9123    4.2512 H         1 <0>         0.1408
     47 H11        11.4748   -1.2325    5.1237 H         1 <0>         0.1489
     48 H12         7.4645   -0.8064    3.6514 H         1 <0>         0.4348
     49 H13         4.8979   -2.0971    3.2143 H         1 <0>         0.4343
     50 H14         3.1728   -1.9955    2.6071 H         1 <0>         0.1435
     51 H15         0.8942   -1.6814    1.7465 H         1 <0>         0.1483
     52 H16         4.1071    2.0698    1.6030 H         1 <0>         0.1535
     53 H17        -0.4282    2.6345   -0.1929 H         1 <0>         0.1384
     54 H18        -0.3275    2.6164    1.5967 H         1 <0>         0.0913
@<TRIPOS>BOND
     1    1    2 1
     2    1   37 1
     3    1   38 1
     4    1   39 1
     5    2    3 1
     6    3    8 ar
     7    3    4 ar
     8    4    5 ar
     9    4   40 1
    10    5    6 ar
    11    5   41 1
    12    6    7 ar
    13    6   34 1
    14    7    8 ar
    15    7   42 1
    16    8    9 1
    17    9   10 1
    18    9   43 1
    19   10   11 2
    20   10   12 2
    21   10   13 1
    22   13   18 ar
    23   13   14 ar
    24   14   15 ar
    25   14   44 1
    26   15   16 ar
    27   15   45 1
    28   16   17 ar
    29   16   19 1
    30   17   18 ar
    31   17   46 1
    32   18   47 1
    33   19   20 2
    34   19   21 am
    35   21   22 1
    36   21   48 1
    37   22   23 am
    38   22   49 1
    39   23   24 2
    40   23   25 1
    41   25   30 ar
    42   25   26 ar
    43   26   27 ar
    44   26   50 1
    45   27   28 ar
    46   27   51 1
    47   28   33 1
    48   28   29 ar
    49   29   30 ar
    50   29   31 1
    51   30   52 1
    52   31   32 1
    53   32   33 1
    54   32   53 1
    55   32   54 1
    56   34   35 2
    57   34   36 1
@<TRIPOS>MOLECULE
ZINC16613176
   70    73     0     0     0
SMALL
USER_CHARGES
3-[2-(3-methoxypropylamino)-2-oxo-ethyl]-N-(4-nitrophenyl)-4-oxo-1-phenyl-1,3,8-triazaspiro[4.5]decane-8-carboxamide
@<TRIPOS>ATOM
      1 C1          8.7231    2.9919    9.1958 C.3       1 <0>         0.0311
      2 O1          8.5175    3.7996    8.0350 O.3       1 <0>        -0.3925
      3 C2          7.6632    3.2040    7.0565 C.3       1 <0>         0.0634
      4 C3          7.5150    4.1516    5.8644 C.3       1 <0>        -0.1316
      5 C4          6.6003    3.5140    4.8167 C.3       1 <0>         0.1228
      6 N1          6.4584    4.4213    3.6753 N.am      1 <0>        -0.7275
      7 C5          5.6930    4.0671    2.6240 C.2       1 <0>         0.4940
      8 O2          5.1217    2.9973    2.6229 O.2       1 <0>        -0.5258
      9 C6          5.5471    5.0004    1.4498 C.3       1 <0>         0.1143
     10 N2          4.6713    4.3899    0.4466 N.am      1 <0>        -0.6084
     11 C7          5.1179    3.5286   -0.6557 C.3       1 <0>         0.2539
     12 N3          4.0053    3.4994   -1.6336 N.pl3     1 <0>        -0.4477
     13 C8          2.8159    3.7578   -0.7948 C.3       1 <0>         0.0700
     14 C9          3.3302    4.5324    0.3942 C.2       1 <0>         0.5394
     15 O3          2.6537    5.1738    1.1700 O.2       1 <0>        -0.4989
     16 C10         2.1982    2.4380   -0.3420 C.3       1 <0>        -0.1584
     17 C11         0.9996    2.7242    0.5694 C.3       1 <0>         0.1323
     18 N4          0.0779    3.6275   -0.1329 N.am      1 <0>        -0.6125
     19 C12         0.5982    4.8904   -0.6742 C.3       1 <0>         0.0975
     20 C13         1.7988    4.5895   -1.5708 C.3       1 <0>        -0.1091
     21 C14        -1.2210    3.3007   -0.2828 C.2       1 <0>         0.7099
     22 O4         -1.6145    2.2015    0.0569 O.2       1 <0>        -0.5625
     23 N5         -2.0827    4.1903   -0.8144 N.am      1 <0>        -0.6809
     24 C15        -3.4502    3.8970   -0.8627 C.ar      1 <0>         0.2239
     25 C16        -3.8773    2.5765   -0.9108 C.ar      1 <0>        -0.1366
     26 C17        -5.2277    2.2902   -0.9535 C.ar      1 <0>        -0.0299
     27 C18        -6.1538    3.3170   -0.9596 C.ar      1 <0>        -0.0706
     28 C19        -5.7316    4.6331   -0.9166 C.ar      1 <0>        -0.0284
     29 C20        -4.3827    4.9259   -0.8684 C.ar      1 <0>        -0.1555
     30 N6         -7.6003    3.0068   -1.0117 N.pl3     1 <0>         0.0321
     31 O5         -8.4171    3.9103   -1.0166 O.2       1 <0>        -0.1651
     32 O6         -7.9736    1.8480   -1.0495 O.3       1 <0>        -0.1634
     33 C21         3.9178    2.2517   -2.2553 C.ar      1 <0>         0.0925
     34 C22         5.0096    1.3928   -2.2490 C.ar      1 <0>        -0.1537
     35 C23         4.9182    0.1579   -2.8605 C.ar      1 <0>        -0.0930
     36 C24         3.7450   -0.2197   -3.4876 C.ar      1 <0>        -0.1321
     37 C25         2.6580    0.6351   -3.5003 C.ar      1 <0>        -0.0981
     38 C26         2.7409    1.8693   -2.8862 C.ar      1 <0>        -0.1351
     39 H1          9.3820    3.5140    9.8896 H         1 <0>         0.0887
     40 H2          7.7652    2.8000    9.6793 H         1 <0>         0.0432
     41 H3          9.1789    2.0458    8.9041 H         1 <0>         0.0431
     42 H4          6.6833    3.0165    7.4955 H         1 <0>         0.0536
     43 H5          8.0970    2.2623    6.7203 H         1 <0>         0.0535
     44 H6          8.4949    4.3392    5.4254 H         1 <0>         0.0800
     45 H7          7.0812    5.0934    6.2006 H         1 <0>         0.0800
     46 H8          5.6204    3.3264    5.2557 H         1 <0>         0.0712
     47 H9          7.0341    2.5722    4.4805 H         1 <0>         0.0715
     48 H10         6.9154    5.2769    3.6761 H         1 <0>         0.4041
     49 H11         6.5270    5.1880    1.0108 H         1 <0>         0.1174
     50 H12         5.1133    5.9422    1.7860 H         1 <0>         0.1195
     51 H13         6.0126    3.9455   -1.1182 H         1 <0>         0.1057
     52 H14         5.3198    2.5228   -0.2874 H         1 <0>         0.0767
     53 H15         2.9410    1.8577    0.2055 H         1 <0>         0.0865
     54 H16         1.8659    1.8740   -1.2136 H         1 <0>         0.1104
     55 H17         1.3444    3.1966    1.4892 H         1 <0>         0.0784
     56 H18         0.4875    1.7918    0.8070 H         1 <0>         0.1038
     57 H19        -0.1778    5.3848   -1.2585 H         1 <0>         0.0798
     58 H20         0.9105    5.5381    0.1450 H         1 <0>         0.1039
     59 H21         2.2602    5.5245   -1.8886 H         1 <0>         0.0943
     60 H22         1.4656    4.0324   -2.4463 H         1 <0>         0.0858
     61 H23        -1.7549    5.0339   -1.1635 H         1 <0>         0.4131
     62 H24        -3.1543    1.7742   -0.9110 H         1 <0>         0.1772
     63 H25        -5.5607    1.2633   -0.9868 H         1 <0>         0.1564
     64 H26        -6.4574    5.4329   -0.9211 H         1 <0>         0.1575
     65 H27        -4.0536    5.9540   -0.8349 H         1 <0>         0.1495
     66 H28         5.9276    1.6889   -1.7632 H         1 <0>         0.1271
     67 H29         5.7653   -0.5120   -2.8524 H         1 <0>         0.1267
     68 H30         3.6776   -1.1841   -3.9689 H         1 <0>         0.1249
     69 H31         1.7433    0.3372   -3.9913 H         1 <0>         0.1270
     70 H32         1.8917    2.5365   -2.8967 H         1 <0>         0.1299
@<TRIPOS>BOND
     1    1    2 1
     2    1   39 1
     3    1   40 1
     4    1   41 1
     5    2    3 1
     6    3    4 1
     7    3   42 1
     8    3   43 1
     9    4    5 1
    10    4   44 1
    11    4   45 1
    12    5    6 1
    13    5   46 1
    14    5   47 1
    15    6    7 am
    16    6   48 1
    17    7    8 2
    18    7    9 1
    19    9   10 1
    20    9   49 1
    21    9   50 1
    22   10   14 am
    23   10   11 1
    24   11   12 1
    25   11   51 1
    26   11   52 1
    27   12   13 1
    28   12   33 1
    29   13   20 1
    30   13   14 1
    31   13   16 1
    32   14   15 2
    33   16   17 1
    34   16   53 1
    35   16   54 1
    36   17   18 1
    37   17   55 1
    38   17   56 1
    39   18   19 1
    40   18   21 am
    41   19   20 1
    42   19   57 1
    43   19   58 1
    44   20   59 1
    45   20   60 1
    46   21   22 2
    47   21   23 am
    48   23   24 1
    49   23   61 1
    50   24   29 ar
    51   24   25 ar
    52   25   26 ar
    53   25   62 1
    54   26   27 ar
    55   26   63 1
    56   27   28 ar
    57   27   30 1
    58   28   29 ar
    59   28   64 1
    60   29   65 1
    61   30   31 2
    62   30   32 1
    63   33   38 ar
    64   33   34 ar
    65   34   35 ar
    66   34   66 1
    67   35   36 ar
    68   35   67 1
    69   36   37 ar
    70   36   68 1
    71   37   38 ar
    72   37   69 1
    73   38   70 1
@<TRIPOS>MOLECULE
ZINC22066504
   61    64     0     0     0
SMALL
USER_CHARGES
[(2S,3R,4R,5S,6S)-5-acetoxy-2-[5,7-dihydroxy-2-(4-hydroxyphenyl)-4-oxo-chromen-3-yl]oxy-3-hydroxy-6-methyl-tetrahydropyran-4-yl] acetate
@<TRIPOS>ATOM
      1 C1          3.8713   -4.0814   -3.2673 C.3       1 <0>        -0.1962
      2 C2          3.1147   -2.7826   -2.9815 C.3       1 <0>         0.0917
      3 H1          3.6683   -2.1468   -2.2749 H         1 <0>         0.1248
      4 C3          2.8452   -2.0485   -4.2977 C.3       1 <0>         0.0684
      5 H2          3.7859   -1.7956   -4.8087 H         1 <0>         0.1151
      6 C4          1.9528   -2.9205   -5.1862 C.3       1 <0>         0.1059
      7 H3          2.4758   -3.8374   -5.4956 H         1 <0>         0.1175
      8 C5          0.6624   -3.2490   -4.4291 C.3       1 <0>         0.1022
      9 H4          0.0522   -2.3489   -4.2633 H         1 <0>         0.0887
     10 C6          1.0161   -3.9367   -3.1079 C.3       1 <0>         0.2244
     11 H5          1.5363   -4.8964   -3.2435 H         1 <0>         0.0725
     12 O1          1.8723   -3.0854   -2.3435 O.3       1 <0>        -0.3797
     13 O2         -0.1801   -4.1959   -2.3703 O.3       1 <0>        -0.2736
     14 C7         -0.0519   -4.9004   -1.2130 C.2       1 <0>        -0.0930
     15 C8         -0.0096   -6.3185   -1.2398 C.2       1 <0>         0.4146
     16 O3         -0.0863   -6.9355   -2.2903 O.2       1 <0>        -0.4414
     17 C9          0.1241   -7.0165    0.0488 C.ar      1 <0>        -0.3024
     18 C10         0.1673   -8.4154    0.1165 C.ar      1 <0>         0.2880
     19 C11         0.2931   -9.0338    1.3462 C.ar      1 <0>        -0.2938
     20 C12         0.3760   -8.2714    2.5067 C.ar      1 <0>         0.2633
     21 C13         0.3344   -6.8875    2.4474 C.ar      1 <0>        -0.2839
     22 C14         0.2081   -6.2484    1.2232 C.ar      1 <0>         0.2229
     23 O4          0.1649   -4.9017    1.1493 O.3       1 <0>        -0.2075
     24 C15         0.0426   -4.2496   -0.0196 C.2       1 <0>         0.2048
     25 C16         0.0033   -2.7757   -0.0097 C.ar      1 <0>        -0.1028
     26 C17        -0.9898   -2.0960   -0.7209 C.ar      1 <0>        -0.0140
     27 C18        -1.0229   -0.7190   -0.7084 C.ar      1 <0>        -0.1648
     28 C19        -0.0711   -0.0056    0.0098 C.ar      1 <0>         0.1849
     29 C20         0.9213   -0.6768    0.7136 C.ar      1 <0>        -0.2217
     30 C21         0.9588   -2.0538    0.7114 C.ar      1 <0>        -0.0263
     31 O5         -0.1075    1.3518    0.0193 O.3       1 <0>        -0.5057
     32 O6          0.4994   -8.8892    3.7093 O.3       1 <0>        -0.4947
     33 O7          0.0866   -9.1576   -1.0169 O.3       1 <0>        -0.4668
     34 O8         -0.1465   -4.1219   -5.2202 O.3       1 <0>        -0.5757
     35 O9          1.6307   -2.2014   -6.4058 O.3       1 <0>        -0.3452
     36 C22         1.4134   -2.9367   -7.5076 C.2       1 <0>         0.4576
     37 O10         1.4899   -4.1414   -7.4546 O.2       1 <0>        -0.4892
     38 C23         1.0742   -2.2597   -8.8105 C.3       1 <0>        -0.1478
     39 O11         2.1750   -0.7901   -4.0229 O.3       1 <0>        -0.3322
     40 C24         2.9541    0.2852   -3.8268 C.2       1 <0>         0.4620
     41 O12         4.1563    0.1784   -3.8827 O.2       1 <0>        -0.5150
     42 C25         2.3293    1.6255   -3.5367 C.3       1 <0>        -0.1498
     43 H6          4.8276   -3.8482   -3.7584 H         1 <0>         0.0826
     44 H7          3.2664   -4.7205   -3.9274 H         1 <0>         0.0683
     45 H8          4.0639   -4.6092   -2.3216 H         1 <0>         0.0806
     46 H9          0.3274  -10.1116    1.4062 H         1 <0>         0.1459
     47 H10         0.3997   -6.3062    3.3553 H         1 <0>         0.1485
     48 H11        -1.7298   -2.6497   -1.2797 H         1 <0>         0.1367
     49 H12        -1.7900   -0.1931   -1.2574 H         1 <0>         0.1351
     50 H13         1.6620   -0.1181    1.2666 H         1 <0>         0.1312
     51 H14         1.7279   -2.5747    1.2624 H         1 <0>         0.1269
     52 H15         0.6452    1.9182    0.5873 H         1 <0>         0.4361
     53 H16         0.5654   -8.2916    4.6304 H         1 <0>         0.4457
     54 H17         0.1209  -10.2555   -0.9590 H         1 <0>         0.4412
     55 H18        -1.1181   -4.4683   -4.8381 H         1 <0>         0.4220
     56 H19         0.9326   -3.0200   -9.5928 H         1 <0>         0.1040
     57 H20         1.8948   -1.5860   -9.0982 H         1 <0>         0.0992
     58 H21         0.1476   -1.6789   -8.6916 H         1 <0>         0.1013
     59 H22         3.1206    2.3784   -3.4064 H         1 <0>         0.1033
     60 H23         1.7308    1.5595   -2.6161 H         1 <0>         0.1026
     61 H24         1.6805    1.9169   -4.3758 H         1 <0>         0.1029
@<TRIPOS>BOND
     1    1    2 1
     2    1   43 1
     3    1   44 1
     4    1   45 1
     5    2    3 1
     6    2   12 1
     7    2    4 1
     8    4    5 1
     9    4    6 1
    10    4   39 1
    11    6    7 1
    12    6    8 1
    13    6   35 1
    14    8    9 1
    15    8   10 1
    16    8   34 1
    17   10   11 1
    18   10   12 1
    19   10   13 1
    20   13   14 1
    21   14   24 2
    22   14   15 1
    23   15   16 2
    24   15   17 1
    25   17   22 ar
    26   17   18 ar
    27   18   19 ar
    28   18   33 1
    29   19   20 ar
    30   19   46 1
    31   20   21 ar
    32   20   32 1
    33   21   22 ar
    34   21   47 1
    35   22   23 1
    36   23   24 1
    37   24   25 1
    38   25   30 ar
    39   25   26 ar
    40   26   27 ar
    41   26   48 1
    42   27   28 ar
    43   27   49 1
    44   28   29 ar
    45   28   31 1
    46   29   30 ar
    47   29   50 1
    48   30   51 1
    49   31   52 1
    50   32   53 1
    51   33   54 1
    52   34   55 1
    53   35   36 1
    54   36   37 2
    55   36   38 1
    56   38   56 1
    57   38   57 1
    58   38   58 1
    59   39   40 1
    60   40   41 2
    61   40   42 1
    62   42   59 1
    63   42   60 1
    64   42   61 1
@<TRIPOS>MOLECULE
ZINC36017296
   76    78     0     0     0
SMALL
USER_CHARGES

@<TRIPOS>ATOM
      1 C1         -0.3914    1.6132    0.1611 C.3       1 <0>        -0.1701
      2 C2         -0.4223    0.0844    0.2145 C.3       1 <0>         0.0917
      3 N1         -1.8008   -0.3823    0.0467 N.am      1 <0>        -0.5279
      4 C3         -2.5693   -0.5374    1.1647 C.2       1 <0>         0.2227
      5 C4         -3.8476   -0.9642    1.0781 C.2       1 <0>        -0.2520
      6 C5         -4.3991   -1.2642   -0.3010 C.3       1 <0>         0.2531
      7 H1         -5.2758   -0.6355   -0.4564 H         1 <0>         0.0940
      8 N2         -3.4891   -1.0641   -1.4414 N.am      1 <0>        -0.7147
      9 C6         -2.2381   -0.6277   -1.1949 C.2       1 <0>         0.7060
     10 O1         -1.4804   -0.4557   -2.1298 O.2       1 <0>        -0.5591
     11 C7         -4.8540   -2.7008   -0.3171 C.ar      1 <0>        -0.0938
     12 C8         -3.9900   -3.6950   -0.7383 C.ar      1 <0>        -0.1209
     13 C9         -4.4041   -5.0135   -0.7543 C.ar      1 <0>        -0.0790
     14 C10        -5.6844   -5.3443   -0.3496 C.ar      1 <0>        -0.1916
     15 C11        -6.5548   -4.3533    0.0735 C.ar      1 <0>         0.1144
     16 C12        -6.1358   -3.0261    0.0954 C.ar      1 <0>         0.0752
     17 O2         -6.9848   -2.0502    0.5153 O.3       1 <0>        -0.3175
     18 C13        -7.8109   -1.4379   -0.4771 C.3       1 <0>         0.0358
     19 O3         -7.8142   -4.6769    0.4718 O.3       1 <0>        -0.3055
     20 C14        -8.1732   -6.0594    0.4283 C.3       1 <0>         0.0243
     21 C15        -4.6446   -1.1262    2.2355 C.2       1 <0>         0.5476
     22 O4         -5.5370   -0.3346    2.4754 O.2       1 <0>        -0.4818
     23 O5         -4.4152   -2.1587    3.0736 O.3       1 <0>        -0.3462
     24 C16        -5.2582   -2.2610    4.2229 C.3       1 <0>         0.0620
     25 C17        -4.8503   -3.4836    5.0474 C.3       1 <0>        -0.1495
     26 C18        -1.9813   -0.2278    2.5173 C.3       1 <0>         0.0779
     27 N3         -0.8987   -1.1768    2.8095 N.3       1 <0>        -0.5288
     28 C19        -1.4201   -2.5427    2.9515 C.3       1 <0>         0.0406
     29 C20        -0.2486   -3.5229    3.0741 C.3       1 <0>         0.1370
     30 N4          0.6241   -3.0734    4.1693 N.am      1 <0>        -0.6316
     31 C21         1.0768   -1.6740    4.1686 C.3       1 <0>         0.1181
     32 C22        -0.1469   -0.7666    4.0030 C.3       1 <0>         0.0380
     33 C23         0.9994   -3.9213    5.1474 C.2       1 <0>         0.7088
     34 O6          0.5488   -5.0502    5.1793 O.2       1 <0>        -0.5857
     35 N5          1.8741   -3.5180    6.0901 N.am      1 <0>        -0.7431
     36 C24         2.3659   -4.4706    7.0885 C.3       1 <0>         0.1542
     37 C25         3.7272   -4.0057    7.6098 C.3       1 <0>        -0.1613
     38 C26         1.3742   -4.5485    8.2510 C.3       1 <0>        -0.1644
     39 H2          0.6343    1.9604    0.2860 H         1 <0>         0.0748
     40 H3         -0.7746    1.9509   -0.8018 H         1 <0>         0.0607
     41 H4         -1.0118    2.0173    0.9611 H         1 <0>         0.0543
     42 H5          0.1981   -0.3197   -0.5854 H         1 <0>         0.0954
     43 H6         -0.0391   -0.2533    1.1774 H         1 <0>         0.1232
     44 H7         -3.7841   -1.2392   -2.3487 H         1 <0>         0.4325
     45 H8         -2.9896   -3.4405   -1.0558 H         1 <0>         0.1260
     46 H9         -3.7264   -5.7871   -1.0840 H         1 <0>         0.1309
     47 H10        -6.0057   -6.3753   -0.3637 H         1 <0>         0.1341
     48 H11        -8.4383   -0.6790   -0.0097 H         1 <0>         0.0961
     49 H12        -7.1824   -0.9726   -1.2364 H         1 <0>         0.0423
     50 H13        -8.4421   -2.1952   -0.9420 H         1 <0>         0.0478
     51 H14        -8.0865   -6.4254   -0.5947 H         1 <0>         0.0560
     52 H15        -7.5060   -6.6286    1.0756 H         1 <0>         0.0571
     53 H16        -9.2010   -6.1789    0.7710 H         1 <0>         0.1023
     54 H17        -5.1548   -1.3620    4.8305 H         1 <0>         0.0629
     55 H18        -6.2953   -2.3670    3.9045 H         1 <0>         0.0711
     56 H19        -4.9537   -4.3826    4.4398 H         1 <0>         0.0666
     57 H20        -3.8132   -3.3775    5.3658 H         1 <0>         0.0625
     58 H21        -5.4933   -3.5616    5.9241 H         1 <0>         0.0783
     59 H22        -1.5843    0.7874    2.5171 H         1 <0>         0.1067
     60 H23        -2.7562   -0.3148    3.2789 H         1 <0>         0.0647
     61 H24        -2.0407   -2.6040    3.8455 H         1 <0>         0.0535
     62 H25        -2.0171   -2.7971    2.0757 H         1 <0>         0.0918
     63 H26        -0.6277   -4.5209    3.2942 H         1 <0>         0.0990
     64 H27         0.3141   -3.5395    2.1408 H         1 <0>         0.0720
     65 H28         1.5740   -1.4495    5.1123 H         1 <0>         0.0816
     66 H29         1.7670   -1.5128    3.3405 H         1 <0>         0.0807
     67 H30         0.1796    0.2672    3.8897 H         1 <0>         0.0932
     68 H31        -0.7852   -0.8526    4.8823 H         1 <0>         0.0466
     69 H32         2.1779   -2.5970    6.1075 H         1 <0>         0.3932
     70 H33         2.4686   -5.4550    6.6319 H         1 <0>         0.0871
     71 H34         3.6245   -3.0213    8.0664 H         1 <0>         0.0600
     72 H35         4.0931   -4.7144    8.3527 H         1 <0>         0.0747
     73 H36         4.4337   -3.9501    6.7816 H         1 <0>         0.0616
     74 H37         0.4044   -4.8797    7.8796 H         1 <0>         0.0616
     75 H38         1.7401   -5.2573    8.9939 H         1 <0>         0.0653
     76 H39         1.2715   -3.5641    8.7076 H         1 <0>         0.0541
@<TRIPOS>BOND
     1    1    2 1
     2    1   39 1
     3    1   40 1
     4    1   41 1
     5    2    3 1
     6    2   42 1
     7    2   43 1
     8    3    9 am
     9    3    4 1
    10    4    5 2
    11    4   26 1
    12    5    6 1
    13    5   21 1
    14    6    7 1
    15    6    8 1
    16    6   11 1
    17    8    9 am
    18    8   44 1
    19    9   10 2
    20   11   16 ar
    21   11   12 ar
    22   12   13 ar
    23   12   45 1
    24   13   14 ar
    25   13   46 1
    26   14   15 ar
    27   14   47 1
    28   15   16 ar
    29   15   19 1
    30   16   17 1
    31   17   18 1
    32   18   48 1
    33   18   49 1
    34   18   50 1
    35   19   20 1
    36   20   51 1
    37   20   52 1
    38   20   53 1
    39   21   22 2
    40   21   23 1
    41   23   24 1
    42   24   25 1
    43   24   54 1
    44   24   55 1
    45   25   56 1
    46   25   57 1
    47   25   58 1
    48   26   27 1
    49   26   59 1
    50   26   60 1
    51   27   32 1
    52   27   28 1
    53   28   29 1
    54   28   61 1
    55   28   62 1
    56   29   30 1
    57   29   63 1
    58   29   64 1
    59   30   31 1
    60   30   33 am
    61   31   32 1
    62   31   65 1
    63   31   66 1
    64   32   67 1
    65   32   68 1
    66   33   34 2
    67   33   35 am
    68   35   36 1
    69   35   69 1
    70   36   37 1
    71   36   38 1
    72   36   70 1
    73   37   71 1
    74   37   72 1
    75   37   73 1
    76   38   74 1
    77   38   75 1
    78   38   76 1
@<TRIPOS>MOLECULE
ZINC22843180
   59    63     0     0     0
SMALL
USER_CHARGES

@<TRIPOS>ATOM
      1 C1         -1.7099    0.8790    0.3480 C.3       1 <0>        -0.1191
      2 C2         -0.7951   -0.3045    0.1648 C.ar      1 <0>        -0.0842
      3 C3         -0.7809   -0.9839   -1.0333 C.ar      1 <0>        -0.0551
      4 C4          0.0675   -2.0809   -1.2023 C.ar      1 <0>        -0.0237
      5 C5          0.8990   -2.4851   -0.1545 C.ar      1 <0>        -0.0757
      6 C6          0.8799   -1.8014    1.0405 C.ar      1 <0>        -0.0665
      7 C7          0.0380   -0.7059    1.2036 C.ar      1 <0>         0.1451
      8 N1          0.0255   -0.0116    2.4139 N.pl3     1 <0>        -0.6202
      9 C8         -0.0560   -0.6869    3.5774 C.2       1 <0>         0.5092
     10 S1         -0.0335   -2.3988    3.5769 S.2       1 <0>        -0.4676
     11 N2         -0.1553   -0.0146    4.7413 N.am      1 <0>        -0.6419
     12 C9         -0.2368   -0.6899    5.9048 C.2       1 <0>         0.5354
     13 O1         -0.2208   -1.9056    5.9045 O.2       1 <0>        -0.3654
     14 C10        -0.3453    0.0451    7.1772 C.ar      1 <0>        -0.1514
     15 C11        -0.3698    1.4427    7.1823 C.ar      1 <0>        -0.0212
     16 C12        -0.4713    2.1237    8.3751 C.ar      1 <0>        -0.0577
     17 C13        -0.5495    1.4307    9.5731 C.ar      1 <0>        -0.0190
     18 C14        -0.5265    0.0514    9.5852 C.ar      1 <0>        -0.1281
     19 C15        -0.4304   -0.6538    8.3918 C.ar      1 <0>         0.2978
     20 N3         -0.4129   -2.0422    8.4008 N.pl3     1 <0>        -0.6761
     21 C16         0.8538   -2.7831    8.5096 C.3       1 <0>         0.1136
     22 C17         0.7133   -3.8189    9.6310 C.3       1 <0>         0.0481
     23 O2         -0.4621   -4.6007    9.4050 O.3       1 <0>        -0.3755
     24 C18        -1.6786   -3.8503    9.4338 C.3       1 <0>         0.0483
     25 C19        -1.6611   -2.8161    8.3081 C.3       1 <0>         0.1133
     26 N4         -0.4966    3.6037    8.3779 N.pl3     1 <0>         0.0329
     27 O3         -0.4282    4.2114    7.3350 O.2       1 <0>        -0.1569
     28 O4         -0.5856    4.2048    9.4231 O.3       1 <0>        -0.1457
     29 C20         0.0850   -2.8118   -2.4848 C.2       1 <0>         0.3233
     30 N5         -0.6480   -2.5139   -3.5297 N.2       1 <0>        -0.4608
     31 C21        -0.3714   -3.3939   -4.5246 C.ar      1 <0>         0.2363
     32 C22         0.6004   -4.2750   -4.0193 C.ar      1 <0>        -0.0463
     33 O5          0.8605   -3.8785   -2.7549 O.3       1 <0>        -0.1995
     34 C23         1.0799   -5.2937   -4.8290 C.ar      1 <0>        -0.0378
     35 C24         0.5759   -5.4018   -6.1156 C.ar      1 <0>        -0.1529
     36 C25        -0.3808   -4.5004   -6.5513 C.ar      1 <0>         0.1295
     37 N6         -0.8237   -3.5404   -5.7671 N.ar      1 <0>        -0.4406
     38 H1         -1.1930    1.7886    0.0421 H         1 <0>         0.0792
     39 H2         -2.6030    0.7458   -0.2624 H         1 <0>         0.0812
     40 H3         -1.9953    0.9586    1.3970 H         1 <0>         0.0635
     41 H4         -1.4251   -0.6692   -1.8410 H         1 <0>         0.1493
     42 H5          1.5558   -3.3330   -0.2819 H         1 <0>         0.1416
     43 H6          1.5220   -2.1135    1.8508 H         1 <0>         0.1535
     44 H7          0.0755    0.9571    2.4178 H         1 <0>         0.4107
     45 H8         -0.1680    0.9553    4.7415 H         1 <0>         0.4085
     46 H9         -0.3088    1.9878    6.2520 H         1 <0>         0.1513
     47 H10        -0.6284    1.9741   10.5031 H         1 <0>         0.1635
     48 H11        -0.5875   -0.4809   10.5229 H         1 <0>         0.1582
     49 H12         1.0655   -3.2885    7.5674 H         1 <0>         0.0776
     50 H13         1.6635   -2.0930    8.7466 H         1 <0>         0.0741
     51 H14         1.5877   -4.4696    9.6372 H         1 <0>         0.1024
     52 H15         0.6319   -3.3080   10.5904 H         1 <0>         0.0515
     53 H16        -2.5250   -4.5236    9.2982 H         1 <0>         0.1028
     54 H17        -1.7687   -3.3395   10.3925 H         1 <0>         0.0511
     55 H18        -2.5159   -2.1478    8.4117 H         1 <0>         0.0741
     56 H19        -1.7068   -3.3249    7.3452 H         1 <0>         0.0776
     57 H20         1.8267   -5.9845   -4.4665 H         1 <0>         0.1504
     58 H21         0.9270   -6.1830   -6.7735 H         1 <0>         0.1581
     59 H22        -0.7715   -4.5868   -7.5545 H         1 <0>         0.1761
@<TRIPOS>BOND
     1    1    2 1
     2    1   38 1
     3    1   39 1
     4    1   40 1
     5    2    7 ar
     6    2    3 ar
     7    3    4 ar
     8    3   41 1
     9    4    5 ar
    10    4   29 1
    11    5    6 ar
    12    5   42 1
    13    6    7 ar
    14    6   43 1
    15    7    8 1
    16    8    9 1
    17    8   44 1
    18    9   10 2
    19    9   11 1
    20   11   12 am
    21   11   45 1
    22   12   13 2
    23   12   14 1
    24   14   19 ar
    25   14   15 ar
    26   15   16 ar
    27   15   46 1
    28   16   17 ar
    29   16   26 1
    30   17   18 ar
    31   17   47 1
    32   18   19 ar
    33   18   48 1
    34   19   20 1
    35   20   25 1
    36   20   21 1
    37   21   22 1
    38   21   49 1
    39   21   50 1
    40   22   23 1
    41   22   51 1
    42   22   52 1
    43   23   24 1
    44   24   25 1
    45   24   53 1
    46   24   54 1
    47   25   55 1
    48   25   56 1
    49   26   27 2
    50   26   28 1
    51   29   33 1
    52   29   30 2
    53   30   31 1
    54   31   37 ar
    55   31   32 ar
    56   32   33 1
    57   32   34 ar
    58   34   35 ar
    59   34   57 1
    60   35   36 ar
    61   35   58 1
    62   36   37 ar
    63   36   59 1
@<TRIPOS>MOLECULE
ZINC04883789
   45    47     0     0     0
SMALL
USER_CHARGES
methyl 8-ethyl-6-(4-hydroxyphenyl)-3-methyl-2,4-dioxo-3,7-diazabicyclo[3.3.0]octane-8-carboxylate
@<TRIPOS>ATOM
      1 C1          4.4551    5.4574    2.5759 C.3       1 <0>        -0.1783
      2 C2          4.6881    5.5371    1.0658 C.3       1 <0>        -0.1310
      3 C3          3.4158    6.0376    0.3792 C.3       1 <0>         0.0887
      4 C4          3.5548    5.9311   -1.1537 C.3       1 <0>        -0.1362
      5 H1          4.5893    6.0103   -1.4878 H         1 <0>         0.1889
      6 C5          2.9061    4.5689   -1.5187 C.3       1 <0>        -0.1274
      7 H2          3.5869    3.9052   -2.0518 H         1 <0>         0.1876
      8 C6          2.4364    3.9807   -0.1719 C.3       1 <0>         0.1003
      9 H3          3.1903    3.3058    0.2333 H         1 <0>         0.1778
     10 C7          1.1246    3.2589   -0.3431 C.ar      1 <0>        -0.1622
     11 C8          1.0976    1.8771   -0.3855 C.ar      1 <0>        -0.0505
     12 C9         -0.1036    1.2131   -0.5420 C.ar      1 <0>        -0.1347
     13 C10        -1.2829    1.9339   -0.6619 C.ar      1 <0>         0.1537
     14 C11        -1.2536    3.3202   -0.6142 C.ar      1 <0>        -0.1250
     15 C12        -0.0499    3.9795   -0.4572 C.ar      1 <0>        -0.0923
     16 O1         -2.4653    1.2832   -0.8210 O.3       1 <0>        -0.4924
     17 C13         1.6875    4.9888   -2.3395 C.2       1 <0>         0.5113
     18 O2          0.8821    4.2286   -2.8326 O.2       1 <0>        -0.4132
     19 N1          1.6512    6.3229   -2.4355 N.am      1 <0>        -0.5676
     20 C14         2.6511    6.9523   -1.8074 C.2       1 <0>         0.5152
     21 O3          2.8079    8.1537   -1.7681 O.2       1 <0>        -0.4302
     22 C15         0.6027    7.0363   -3.1690 C.3       1 <0>         0.0620
     23 C16         3.1251    7.4603    0.7824 C.2       1 <0>         0.4531
     24 O4          4.0235    8.1795    1.1505 O.2       1 <0>        -0.4233
     25 O5          1.8681    7.9285    0.7327 O.3       1 <0>        -0.3699
     26 C17         1.6621    9.3081    1.1356 C.3       1 <0>         0.0410
     27 H4          3.6361    4.7681    2.7813 H         1 <0>         0.0543
     28 H5          5.3616    5.1008    3.0651 H         1 <0>         0.1030
     29 H6          4.2017    6.4467    2.9571 H         1 <0>         0.0761
     30 H7          4.9416    4.5478    0.6846 H         1 <0>         0.1154
     31 H8          5.5071    6.2264    0.8604 H         1 <0>         0.1346
     32 H9          2.0164    1.3165   -0.2966 H         1 <0>         0.1431
     33 H10        -0.1242    0.1338   -0.5754 H         1 <0>         0.1462
     34 H11        -2.1707    3.8835   -0.7040 H         1 <0>         0.1419
     35 H12        -0.0262    5.0587   -0.4238 H         1 <0>         0.1118
     36 H13        -2.9118    1.0699    0.0098 H         1 <0>         0.4048
     37 H14         0.9096    7.1666   -4.2067 H         1 <0>         0.0864
     38 H15        -0.3219    6.4602   -3.1332 H         1 <0>         0.0977
     39 H16         0.4403    8.0128   -2.7127 H         1 <0>         0.0973
     40 H17         0.6048    9.5581    1.0484 H         1 <0>         0.1176
     41 H18         1.9816    9.4361    2.1699 H         1 <0>         0.0770
     42 H19         2.2453    9.9659    0.4911 H         1 <0>         0.0818
     43 N2          2.2928    5.1533    0.6911 N.4       1 <0>        -0.5151
     44 H20         1.4031    5.6284    0.4991 H         1 <0>         0.4355
     45 H21         2.3252    4.8733    1.6784 H         1 <0>         0.4452
@<TRIPOS>BOND
     1    1    2 1
     2    1   27 1
     3    1   28 1
     4    1   29 1
     5    2    3 1
     6    2   30 1
     7    2   31 1
     8    3    4 1
     9    3   23 1
    10    3   43 1
    11    4    5 1
    12    4   20 1
    13    4    6 1
    14    6    7 1
    15    6    8 1
    16    6   17 1
    17    8    9 1
    18    8   10 1
    19    8   43 1
    20   10   15 ar
    21   10   11 ar
    22   11   12 ar
    23   11   32 1
    24   12   13 ar
    25   12   33 1
    26   13   14 ar
    27   13   16 1
    28   14   15 ar
    29   14   34 1
    30   15   35 1
    31   16   36 1
    32   17   18 2
    33   17   19 am
    34   19   20 am
    35   19   22 1
    36   20   21 2
    37   22   37 1
    38   22   38 1
    39   22   39 1
    40   23   24 2
    41   23   25 1
    42   25   26 1
    43   26   40 1
    44   26   41 1
    45   26   42 1
    46   43   44 1
    47   43   45 1
@<TRIPOS>MOLECULE
ZINC39658920
   60    62     0     0     0
SMALL
USER_CHARGES

@<TRIPOS>ATOM
      1 C1         -0.2737    1.5453    0.1917 C.3       1 <0>        -0.1537
      2 C2         -0.1779    0.0192    0.1401 C.3       1 <0>        -0.1097
      3 C3          0.5219   -0.4908    1.4015 C.3       1 <0>        -0.1368
      4 C4         -1.5633   -0.5687    0.0618 C.2       1 <0>         0.5440
      5 O1         -1.9526   -1.3214    0.9294 O.2       1 <0>        -0.5278
      6 N1         -2.3698   -0.2579   -0.9724 N.am      1 <0>        -0.6239
      7 C5         -2.0724    0.6298   -2.1212 C.3       1 <0>         0.1100
      8 C6         -2.7134   -0.0769   -3.3366 C.3       1 <0>        -0.1145
      9 H1         -1.9739   -0.6884   -3.8536 H         1 <0>         0.1122
     10 C7         -3.8175   -0.9641   -2.7375 C.3       1 <0>        -0.0717
     11 C8         -3.7523   -0.7320   -1.2210 C.3       1 <0>         0.1065
     12 C9         -3.5451   -2.4318   -3.0525 C.3       1 <0>        -0.1341
     13 C10        -4.6857   -3.2886   -2.4958 C.3       1 <0>        -0.0111
     14 N2         -5.9562   -2.8657   -3.0973 N.4       1 <0>        -0.5043
     15 C11        -6.2562   -1.4813   -2.7128 C.3       1 <0>        -0.0077
     16 C12        -5.1820   -0.5480   -3.2784 C.3       1 <0>        -0.1465
     17 C13        -3.3065    0.9373   -4.2805 C.2       1 <0>         0.5206
     18 O2         -3.7426    1.9839   -3.8501 O.2       1 <0>        -0.5212
     19 N3         -3.3523    0.6811   -5.6029 N.am      1 <0>        -0.7209
     20 C14        -3.9288    1.6670   -6.5205 C.3       1 <0>         0.1204
     21 C15        -3.8584    1.1331   -7.9526 C.3       1 <0>         0.0372
     22 H2         -4.4042    0.1936   -8.0393 H         1 <0>         0.0916
     23 C16        -4.4070    2.1795   -8.9545 C.3       1 <0>         0.0242
     24 O3         -3.7073    1.8185  -10.1695 O.3       1 <0>        -0.3642
     25 C17        -2.4020    1.4041   -9.7327 C.3       1 <0>         0.2516
     26 O4         -2.4875    0.9662   -8.3673 O.3       1 <0>        -0.3729
     27 C18        -1.9087    0.2509  -10.6089 C.3       1 <0>        -0.1556
     28 C19        -1.4276    2.5790   -9.8383 C.3       1 <0>        -0.1738
     29 H3          0.7284    1.9705    0.2483 H         1 <0>         0.0750
     30 H4         -0.7723    1.9087   -0.7069 H         1 <0>         0.0624
     31 H5         -0.8453    1.8441    1.0704 H         1 <0>         0.0639
     32 H6          0.3937   -0.2795   -0.7385 H         1 <0>         0.0985
     33 H7         -0.0497   -0.1921    2.2802 H         1 <0>         0.0647
     34 H8          0.5901   -1.5780    1.3648 H         1 <0>         0.0628
     35 H9          1.5240   -0.0656    1.4581 H         1 <0>         0.0684
     36 H10        -2.5235    1.6105   -1.9704 H         1 <0>         0.1009
     37 H11        -0.9954    0.7232   -2.2604 H         1 <0>         0.0961
     38 H12        -3.9370   -1.6636   -0.6861 H         1 <0>         0.0886
     39 H13        -4.4745    0.0283   -0.9234 H         1 <0>         0.0834
     40 H14        -3.4824   -2.5666   -4.1323 H         1 <0>         0.0961
     41 H15        -2.6046   -2.7343   -2.5921 H         1 <0>         0.1179
     42 H16        -4.5022   -4.3364   -2.7337 H         1 <0>         0.1400
     43 H17        -4.7374   -3.1658   -1.4140 H         1 <0>         0.1343
     44 H18        -5.8879   -2.9270   -4.1021 H         1 <0>         0.4273
     45 H19        -7.2304   -1.1969   -3.1107 H         1 <0>         0.1394
     46 H20        -6.2709   -1.4014   -1.6258 H         1 <0>         0.1336
     47 H21        -5.3956    0.4775   -2.9771 H         1 <0>         0.1271
     48 H22        -5.1779   -0.6150   -4.3663 H         1 <0>         0.0953
     49 H23        -3.0035   -0.1560   -5.9471 H         1 <0>         0.4053
     50 H24        -4.9693    1.8489   -6.2513 H         1 <0>         0.0890
     51 H25        -3.3675    2.5988   -6.4520 H         1 <0>         0.0840
     52 H26        -5.4847    2.0734   -9.0786 H         1 <0>         0.1144
     53 H27        -4.1496    3.1915   -8.6419 H         1 <0>         0.0828
     54 H28        -1.8308    0.5877  -11.6426 H         1 <0>         0.0798
     55 H29        -0.9302   -0.0782  -10.2593 H         1 <0>         0.0794
     56 H30        -2.6138   -0.5782  -10.5490 H         1 <0>         0.0660
     57 H31        -1.7900    3.4075   -9.2297 H         1 <0>         0.0634
     58 H32        -0.4450    2.2693   -9.4822 H         1 <0>         0.0769
     59 H33        -1.3535    2.8972  -10.8782 H         1 <0>         0.0807
     60 H34        -6.6969   -3.4708   -2.7757 H         1 <0>         0.4345
@<TRIPOS>BOND
     1    1    2 1
     2    1   29 1
     3    1   30 1
     4    1   31 1
     5    2    3 1
     6    2    4 1
     7    2   32 1
     8    3   33 1
     9    3   34 1
    10    3   35 1
    11    4    5 2
    12    4    6 am
    13    6   11 1
    14    6    7 1
    15    7    8 1
    16    7   36 1
    17    7   37 1
    18    8    9 1
    19    8   10 1
    20    8   17 1
    21   10   16 1
    22   10   11 1
    23   10   12 1
    24   11   38 1
    25   11   39 1
    26   12   13 1
    27   12   40 1
    28   12   41 1
    29   13   14 1
    30   13   42 1
    31   13   43 1
    32   14   15 1
    33   14   44 1
    34   14   60 1
    35   15   16 1
    36   15   45 1
    37   15   46 1
    38   16   47 1
    39   16   48 1
    40   17   18 2
    41   17   19 am
    42   19   20 1
    43   19   49 1
    44   20   21 1
    45   20   50 1
    46   20   51 1
    47   21   22 1
    48   21   26 1
    49   21   23 1
    50   23   24 1
    51   23   52 1
    52   23   53 1
    53   24   25 1
    54   25   26 1
    55   25   27 1
    56   25   28 1
    57   27   54 1
    58   27   55 1
    59   27   56 1
    60   28   57 1
    61   28   58 1
    62   28   59 1
@<TRIPOS>MOLECULE
ZINC45845275
   51    53     0     0     0
SMALL
USER_CHARGES

@<TRIPOS>ATOM
      1 C1         -0.1024    1.2739    0.0733 C.ar      1 <0>        -0.1594
      2 C2          0.9729    2.1356    0.1595 C.ar      1 <0>         0.1536
      3 N1          2.1985    1.6743    0.3202 N.ar      1 <0>        -0.5053
      4 C3          2.4463    0.3761    0.4045 C.ar      1 <0>         0.4481
      5 C4          1.4105   -0.5488    0.3251 C.ar      1 <0>        -0.1857
      6 C5          0.1145   -0.0948    0.1574 C.ar      1 <0>         0.0524
      7 C6         -1.0359   -1.0642    0.0678 C.3       1 <0>         0.1619
      8 N2         -1.2517   -1.4377   -1.3323 N.am      1 <0>        -0.7504
      9 C7         -2.2352   -2.3006   -1.6556 C.2       1 <0>         0.7110
     10 O1         -3.0033   -2.6953   -0.7997 O.2       1 <0>        -0.5747
     11 N3         -2.3673   -2.7260   -2.9276 N.am      1 <0>        -0.6234
     12 C8         -1.3761   -2.3565   -3.9472 C.3       1 <0>         0.1152
     13 C9         -2.1045   -1.7206   -5.1354 C.3       1 <0>        -0.1309
     14 C10        -3.1917   -2.6759   -5.6328 C.3       1 <0>        -0.0888
     15 C11        -4.2095   -2.9189   -4.5161 C.3       1 <0>        -0.1269
     16 C12        -3.5020   -3.5731   -3.3197 C.3       1 <0>         0.1262
     17 C13        -3.8985   -2.0589   -6.8414 C.3       1 <0>         0.0797
     18 O2         -4.8330   -2.9978   -7.3773 O.3       1 <0>        -0.5722
     19 N4          3.7533   -0.0661    0.5733 N.pl3     1 <0>        -0.5895
     20 C14         4.0493   -1.4923    0.7827 C.3       1 <0>         0.0726
     21 C15         5.1434   -1.9094   -0.2067 C.3       1 <0>         0.0431
     22 O3          6.2478   -1.0085   -0.0944 O.3       1 <0>        -0.3626
     23 C16         5.9353    0.3454   -0.4306 C.3       1 <0>         0.0468
     24 C17         4.8822    0.8772    0.5417 C.3       1 <0>         0.0604
     25 H1         -1.1027    1.6609   -0.0539 H         1 <0>         0.1840
     26 H2          0.8087    3.2011    0.0941 H         1 <0>         0.2110
     27 H3          1.6152   -1.6070    0.3933 H         1 <0>         0.1810
     28 H4         -0.8057   -1.9561    0.6505 H         1 <0>         0.0977
     29 H5         -1.9376   -0.5954    0.4619 H         1 <0>         0.1027
     30 H6         -0.6867   -1.0640   -2.0266 H         1 <0>         0.3971
     31 H7         -0.6687   -1.6415   -3.5271 H         1 <0>         0.0716
     32 H8         -0.8439   -3.2479   -4.2795 H         1 <0>         0.0768
     33 H9         -2.5608   -0.7816   -4.8221 H         1 <0>         0.0703
     34 H10        -1.3927   -1.5296   -5.9386 H         1 <0>         0.0803
     35 H11        -2.7376   -3.6235   -5.9227 H         1 <0>         0.0829
     36 H12        -4.6461   -1.9686   -4.2086 H         1 <0>         0.0658
     37 H13        -4.9961   -3.5808   -4.8785 H         1 <0>         0.0888
     38 H14        -3.1396   -4.5616   -3.6017 H         1 <0>         0.0724
     39 H15        -4.1978   -3.6610   -2.4853 H         1 <0>         0.0981
     40 H16        -4.4266   -1.1570   -6.5320 H         1 <0>         0.0452
     41 H17        -3.1612   -1.8051   -7.6029 H         1 <0>         0.0465
     42 H18        -5.3188   -2.6732   -8.1477 H         1 <0>         0.3844
     43 H19         4.3984   -1.6487    1.8034 H         1 <0>         0.1076
     44 H20         3.1506   -2.0834    0.6069 H         1 <0>         0.1110
     45 H21         5.4748   -2.9221    0.0227 H         1 <0>         0.1271
     46 H22         4.7481   -1.8760   -1.2219 H         1 <0>         0.0666
     47 H23         6.8364    0.9548   -0.3624 H         1 <0>         0.1260
     48 H24         5.5429    0.3869   -1.4467 H         1 <0>         0.0652
     49 H25         4.5348    1.8544    0.2064 H         1 <0>         0.0889
     50 H26         5.3166    0.9634    1.5377 H         1 <0>         0.1104
     51 H27         2.9363    2.3014    0.3778 H         1 <0>         0.4396
@<TRIPOS>BOND
     1    1    6 ar
     2    1    2 ar
     3    1   25 1
     4    2    3 ar
     5    2   26 1
     6    3    4 ar
     7    3   51 1
     8    4    5 ar
     9    4   19 1
    10    5    6 ar
    11    5   27 1
    12    6    7 1
    13    7    8 1
    14    7   28 1
    15    7   29 1
    16    8    9 am
    17    8   30 1
    18    9   10 2
    19    9   11 am
    20   11   16 1
    21   11   12 1
    22   12   13 1
    23   12   31 1
    24   12   32 1
    25   13   14 1
    26   13   33 1
    27   13   34 1
    28   14   15 1
    29   14   17 1
    30   14   35 1
    31   15   16 1
    32   15   36 1
    33   15   37 1
    34   16   38 1
    35   16   39 1
    36   17   18 1
    37   17   40 1
    38   17   41 1
    39   18   42 1
    40   19   24 1
    41   19   20 1
    42   20   21 1
    43   20   43 1
    44   20   44 1
    45   21   22 1
    46   21   45 1
    47   21   46 1
    48   22   23 1
    49   23   24 1
    50   23   47 1
    51   23   48 1
    52   24   49 1
    53   24   50 1
@<TRIPOS>MOLECULE
ZINC58034427
   38    39     0     0     0
SMALL
USER_CHARGES

@<TRIPOS>ATOM
      1 C1         -0.5376    1.4471    0.0887 C.3       1 <0>        -0.1378
      2 C2         -0.2467   -0.0307    0.0396 C.ar      1 <0>         0.0037
      3 C3         -0.3494   -0.7139   -1.1591 C.ar      1 <0>        -0.1157
      4 C4         -0.0847   -2.0672   -1.2098 C.ar      1 <0>        -0.0352
      5 C5          0.2872   -2.7458   -0.0506 C.ar      1 <0>        -0.0538
      6 C6          0.3895   -2.0526    1.1538 C.ar      1 <0>        -0.0320
      7 C7          0.1273   -0.6979    1.1918 C.ar      1 <0>        -0.0408
      8 N1          0.2409    0.0409    2.4694 N.pl3     1 <0>         0.0240
      9 O1          0.6751    1.1692    2.4787 O.2       1 <0>        -0.1314
     10 O2         -0.1005   -0.4839    3.5036 O.3       1 <0>        -0.1463
     11 C8          0.5726   -4.2008   -0.0987 C.2       1 <0>         0.1462
     12 C9          0.9440   -4.8854    1.0820 C.2       1 <0>        -0.0673
     13 C10         1.1988   -6.2225    0.9997 C.2       1 <0>        -0.1625
     14 C11         1.0756   -6.8426   -0.2634 C.2       1 <0>         0.4725
     15 O3          1.2932   -8.0372   -0.3856 O.2       1 <0>        -0.5099
     16 N2          0.7159   -6.1062   -1.3314 N.am      1 <0>        -0.3726
     17 N3          0.4744   -4.8489   -1.2354 N.2       1 <0>        -0.2417
     18 C12         0.5913   -6.7582   -2.6374 C.3       1 <0>         0.1137
     19 H1          0.8260   -7.8180   -2.5382 H         1 <0>         0.1462
     20 C13         1.5636   -6.1108   -3.6255 C.3       1 <0>        -0.1638
     21 C14        -0.8406   -6.5989   -3.1524 C.3       1 <0>        -0.0149
     22 N4         -1.7820   -7.1131   -2.1487 N.4       1 <0>        -0.6392
     23 H2          0.3946    2.0042   -0.0041 H         1 <0>         0.1045
     24 H3         -1.2035    1.7138   -0.7321 H         1 <0>         0.0865
     25 H4         -1.0145    1.6922    1.0377 H         1 <0>         0.0802
     26 H5         -0.6377   -0.1870   -2.0567 H         1 <0>         0.1565
     27 H6         -0.1658   -2.5996   -2.1459 H         1 <0>         0.1499
     28 H7          0.6772   -2.5735    2.0551 H         1 <0>         0.1549
     29 H8          1.0240   -4.3629    2.0238 H         1 <0>         0.1643
     30 H9          1.4861   -6.7895    1.8729 H         1 <0>         0.1789
     31 H10         2.5837   -6.2243   -3.2586 H         1 <0>         0.0830
     32 H11         1.4709   -6.5960   -4.5972 H         1 <0>         0.0944
     33 H12         1.3290   -5.0510   -3.7246 H         1 <0>         0.0840
     34 H13        -1.0455   -5.5442   -3.3359 H         1 <0>         0.1490
     35 H14        -0.9573   -7.1586   -4.0804 H         1 <0>         0.1603
     36 H15        -1.5923   -8.0895   -1.9788 H         1 <0>         0.4396
     37 H16        -1.6739   -6.5951   -1.2897 H         1 <0>         0.4278
     38 H17        -2.7263   -7.0081   -2.4883 H         1 <0>         0.4444
@<TRIPOS>BOND
     1    1    2 1
     2    1   23 1
     3    1   24 1
     4    1   25 1
     5    2    7 ar
     6    2    3 ar
     7    3    4 ar
     8    3   26 1
     9    4    5 ar
    10    4   27 1
    11    5    6 ar
    12    5   11 1
    13    6    7 ar
    14    6   28 1
    15    7    8 1
    16    8    9 2
    17    8   10 1
    18   11   17 2
    19   11   12 1
    20   12   13 2
    21   12   29 1
    22   13   14 1
    23   13   30 1
    24   14   15 2
    25   14   16 am
    26   16   17 1
    27   16   18 1
    28   18   19 1
    29   18   20 1
    30   18   21 1
    31   20   31 1
    32   20   32 1
    33   20   33 1
    34   21   22 1
    35   21   34 1
    36   21   35 1
    37   22   36 1
    38   22   37 1
    39   22   38 1
@<TRIPOS>MOLECULE
ZINC63807961
   36    38     0     0     0
SMALL
USER_CHARGES

@<TRIPOS>ATOM
      1 C1         -0.0184    1.5028    0.0103 C.3       1 <0>        -0.1026
      2 C2          0.0021   -0.0041    0.0020 C.2       1 <0>         0.1029
      3 C3         -1.0806   -0.7516    0.0032 C.2       1 <0>        -0.3114
      4 C4         -0.6446   -2.2043   -0.0174 C.3       1 <0>         0.2864
      5 H1         -1.2215   -2.7709   -0.7484 H         1 <0>         0.1573
      6 N1          0.7804   -2.1103   -0.4287 N.3       1 <0>        -0.4429
      7 O1          1.1374   -0.7433   -0.0133 O.3       1 <0>        -0.1771
      8 N2         -0.7667   -2.8025    1.3144 N.am      1 <0>        -0.7267
      9 C5         -1.3165   -4.0248    1.4563 C.2       1 <0>         0.5625
     10 O2         -1.7111   -4.6311    0.4791 O.2       1 <0>        -0.4853
     11 C6         -1.4395   -4.6273    2.7979 C.2       1 <0>         0.0249
     12 C7         -2.0038   -5.8820    2.9436 C.2       1 <0>        -0.0142
     13 C8         -2.1207   -6.4545    4.2184 C.2       1 <0>         0.0861
     14 C9         -2.6530   -7.6968    4.5362 C.ar      1 <0>        -0.1782
     15 C10        -3.2165   -8.7315    3.7500 C.ar      1 <0>         0.0253
     16 C11        -3.6579   -9.8524    4.3820 C.ar      1 <0>        -0.1964
     17 C12        -3.5551   -9.9740    5.7738 C.ar      1 <0>         0.3079
     18 N3         -3.0421   -9.0405    6.5276 N.ar      1 <0>        -0.5305
     19 C13        -2.5731   -7.8862    6.0000 C.ar      1 <0>         0.4689
     20 N4         -2.0288   -6.8376    6.5657 N.pl3     1 <0>        -0.5636
     21 C14        -1.6873   -5.8513    5.5365 C.3       1 <0>         0.0620
     22 C15        -0.9747   -3.9132    3.9488 C.1       1 <0>         0.1937
     23 N5         -0.6060   -3.3467    4.8618 N.1       1 <0>        -0.3233
     24 H2          1.0042    1.8801    0.0026 H         1 <0>         0.0833
     25 H3         -0.5455    1.8639   -0.8728 H         1 <0>         0.0974
     26 H4         -0.5286    1.8543    0.9071 H         1 <0>         0.0923
     27 H5         -2.0996   -0.3941    0.0169 H         1 <0>         0.1617
     28 H6          1.3420   -2.7957    0.0538 H         1 <0>         0.3647
     29 H7         -0.4519   -2.3187    2.0940 H         1 <0>         0.4026
     30 H8         -2.3543   -6.4205    2.0755 H         1 <0>         0.2018
     31 H9         -3.2939   -8.6330    2.6773 H         1 <0>         0.1764
     32 H10        -4.0920  -10.6559    3.8054 H         1 <0>         0.1782
     33 H11        -3.9157  -10.8778    6.2425 H         1 <0>         0.2040
     34 H12        -0.6127   -5.6689    5.5304 H         1 <0>         0.1758
     35 H13        -2.2253   -4.9210    5.7184 H         1 <0>         0.1752
     36 H14        -1.8724   -6.7320    7.5172 H         1 <0>         0.4608
@<TRIPOS>BOND
     1    1    2 1
     2    1   24 1
     3    1   25 1
     4    1   26 1
     5    2    7 1
     6    2    3 2
     7    3    4 1
     8    3   27 1
     9    4    5 1
    10    4    6 1
    11    4    8 1
    12    6    7 1
    13    6   28 1
    14    8    9 am
    15    8   29 1
    16    9   10 2
    17    9   11 1
    18   11   12 2
    19   11   22 1
    20   12   13 1
    21   12   30 1
    22   13   21 1
    23   13   14 2
    24   14   19 ar
    25   14   15 ar
    26   15   16 ar
    27   15   31 1
    28   16   17 ar
    29   16   32 1
    30   17   18 ar
    31   17   33 1
    32   18   19 ar
    33   19   20 2
    34   20   21 1
    35   20   36 1
    36   21   34 1
    37   21   35 1
    38   22   23 3
@<TRIPOS>MOLECULE
ZINC04334881
   40    43     0     0     0
SMALL
USER_CHARGES
9-[2-(benzo[1,3]dioxol-5-ylmethylamino)ethyl]purin-6-amine
@<TRIPOS>ATOM
      1 C1          2.8857   -1.6459    1.6772 C.ar      1 <0>        -0.0742
      2 C2          1.6169   -1.5522    1.1354 C.ar      1 <0>        -0.1022
      3 C3          1.1833   -0.3558    0.5887 C.ar      1 <0>         0.0766
      4 C4          2.0285    0.7517    0.5865 C.ar      1 <0>         0.0385
      5 C5          3.2980    0.6505    1.1310 C.ar      1 <0>        -0.0787
      6 C6          3.7242   -0.5473    1.6749 C.ar      1 <0>        -0.1658
      7 C7          5.1062   -0.6550    2.2662 C.3       1 <0>         0.0592
      8 C8          7.4142   -1.1885    1.7653 C.3       1 <0>        -0.0256
      9 C9          8.3701   -1.6245    0.6531 C.3       1 <0>         0.0947
     10 N1          9.7271   -1.7399    1.1928 N.pl3     1 <0>        -0.4832
     11 C10        10.6947   -0.7804    1.1548 C.2       1 <0>         0.2565
     12 N2         11.7783   -1.2187    1.7269 N.2       1 <0>        -0.4359
     13 C11        11.5757   -2.4838    2.1671 C.ar      1 <0>        -0.0714
     14 C12        10.2554   -2.8315    1.8346 C.ar      1 <0>         0.2910
     15 N3          9.8053   -4.0398    2.1560 N.ar      1 <0>        -0.5498
     16 C13        10.5790   -4.8983    2.7864 C.ar      1 <0>         0.3623
     17 N4         11.8238   -4.6152    3.1240 N.ar      1 <0>        -0.5691
     18 C14        12.3626   -3.4340    2.8396 C.ar      1 <0>         0.4594
     19 N5         13.6683   -3.1467    3.1972 N.pl3     1 <0>        -0.7412
     20 O1          1.3764    1.7968   -0.0014 O.3       1 <0>        -0.3009
     21 C15        -0.0175    1.4356    0.0099 C.3       1 <0>         0.2110
     22 O2          0.0021   -0.0041    0.0020 O.3       1 <0>        -0.2977
     23 H1          3.2223   -2.5798    2.1027 H         1 <0>         0.1486
     24 H2          0.9636   -2.4122    1.1388 H         1 <0>         0.1507
     25 H3          3.9552    1.5075    1.1309 H         1 <0>         0.1450
     26 H4          5.4077    0.3140    2.6640 H         1 <0>         0.1414
     27 H5          5.1013   -1.3919    3.0694 H         1 <0>         0.1434
     28 H6          7.7317   -0.2232    2.1597 H         1 <0>         0.1402
     29 H7          7.4254   -1.9291    2.5650 H         1 <0>         0.1401
     30 H8          8.0526   -2.5897    0.2587 H         1 <0>         0.1172
     31 H9          8.3589   -0.8838   -0.1466 H         1 <0>         0.1221
     32 H10        10.5790    0.1991    0.7148 H         1 <0>         0.2309
     33 H11        10.1807   -5.8703    3.0372 H         1 <0>         0.2115
     34 H12        14.2008   -2.9398    2.3765 H         1 <0>         0.3756
     35 H13        14.2014   -3.8111    3.6612 H         1 <0>         0.3804
     36 H14        -0.5191    1.8168   -0.8796 H         1 <0>         0.1454
     37 H15        -0.5020    1.8071    0.9129 H         1 <0>         0.0982
     38 N6          6.0508   -1.0746    1.2139 N.4       1 <0>        -0.5149
     39 H16         6.0479   -0.3787    0.4590 H         1 <0>         0.4344
     40 H17         5.7593   -1.9857    0.8407 H         1 <0>         0.4362
@<TRIPOS>BOND
     1    1    6 ar
     2    1    2 ar
     3    1   23 1
     4    2    3 ar
     5    2   24 1
     6    3   22 1
     7    3    4 ar
     8    4    5 ar
     9    4   20 1
    10    5    6 ar
    11    5   25 1
    12    6    7 1
    13    7   26 1
    14    7   27 1
    15    7   38 1
    16    8    9 1
    17    8   28 1
    18    8   29 1
    19    8   38 1
    20    9   10 1
    21    9   30 1
    22    9   31 1
    23   10   14 1
    24   10   11 1
    25   11   12 2
    26   11   32 1
    27   12   13 1
    28   13   18 ar
    29   13   14 ar
    30   14   15 ar
    31   15   16 ar
    32   16   17 ar
    33   16   33 1
    34   17   18 ar
    35   18   19 1
    36   19   34 1
    37   19   35 1
    38   20   21 1
    39   21   22 1
    40   21   36 1
    41   21   37 1
    42   38   39 1
    43   38   40 1
@<TRIPOS>MOLECULE
ZINC19319705
   45    48     0     0     0
SMALL
USER_CHARGES
[[(3-nitrophenyl)-BLAHyl-methylene]amino]thiourea
@<TRIPOS>ATOM
      1 C1         -0.0188    1.7395    1.1623 C.ar      1 <0>        -0.1013
      2 C2         -0.0501    3.1183    1.1974 C.ar      1 <0>        -0.0433
      3 C3         -0.0357    3.8443    0.0043 C.ar      1 <0>        -0.1302
      4 C4          0.0104    3.1676   -1.2170 C.ar      1 <0>        -0.0384
      5 C5          0.0461    1.7890   -1.2368 C.ar      1 <0>        -0.0337
      6 C6          0.0263    1.0760   -0.0509 C.ar      1 <0>        -0.0284
      7 N1          0.1001    1.0703   -2.5296 N.pl3     1 <0>         0.0186
      8 O1          0.1270   -0.1472   -2.5489 O.2       1 <0>        -0.1316
      9 O2          0.1176    1.6964   -3.5742 O.3       1 <0>        -0.1508
     10 C7         -0.0694    5.3185    0.0337 C.2       1 <0>         0.1563
     11 N2         -1.2039    5.9432   -0.0456 N.2       1 <0>        -0.2228
     12 N3         -2.4038    5.2200   -0.0385 N.pl3     1 <0>        -0.5483
     13 C8         -3.5833    5.8717   -0.0167 C.2       1 <0>         0.5945
     14 S1         -5.0496    4.9880   -0.0080 S.2       1 <0>        -0.5853
     15 N4         -3.6086    7.2192   -0.0017 N.pl3     1 <0>        -0.8060
     16 C9          1.2138    6.0992    0.1558 C.3       1 <0>        -0.0718
     17 C10         2.0891    5.8827   -1.0868 C.3       1 <0>         0.0098
     18 N5          3.3426    6.6714   -0.8926 N.4       1 <0>        -0.4611
     19 C11         3.0247    8.1046   -0.7842 C.3       1 <0>         0.1572
     20 N6          2.1911    8.3216    0.4094 N.3       1 <0>        -0.5224
     21 C12         0.9142    7.5998    0.2804 C.3       1 <0>         0.0465
     22 C13         2.9081    7.8818    1.6174 C.3       1 <0>         0.1815
     23 N7          3.2268    6.4503    1.4910 N.3       1 <0>        -0.5197
     24 C14         1.9901    5.6560    1.4040 C.3       1 <0>         0.0435
     25 C15         4.0683    6.2192    0.3055 C.3       1 <0>         0.1570
     26 H1         -0.0299    1.1768    2.0840 H         1 <0>         0.1632
     27 H2         -0.0852    3.6350    2.1451 H         1 <0>         0.1501
     28 H3          0.0217    3.7227   -2.1434 H         1 <0>         0.1554
     29 H4          0.0507   -0.0035   -0.0724 H         1 <0>         0.1671
     30 H5         -2.3832    4.1203   -0.0507 H         1 <0>         0.4467
     31 H6         -4.5713    7.7511    0.0161 H         1 <0>         0.4667
     32 H7         -2.6665    7.7871   -0.0073 H         1 <0>         0.4228
     33 H8          2.3196    4.8122   -1.1909 H         1 <0>         0.1368
     34 H9          1.5498    6.2302   -1.9803 H         1 <0>         0.1421
     35 H10         3.9572    8.6813   -0.6953 H         1 <0>         0.1539
     36 H11         2.4779    8.4279   -1.6823 H         1 <0>         0.1476
     37 H12         0.3781    7.9424   -0.6169 H         1 <0>         0.1119
     38 H13         0.2913    7.7768    1.1696 H         1 <0>         0.1183
     39 H14         3.8374    8.4608    1.7234 H         1 <0>         0.1285
     40 H15         2.2725    8.0437    2.5004 H         1 <0>         0.1308
     41 H16         1.3724    5.8236    2.2986 H         1 <0>         0.1182
     42 H17         2.2354    4.5868    1.3228 H         1 <0>         0.1092
     43 H18         4.2942    5.1465    0.2143 H         1 <0>         0.1464
     44 H19         5.0070    6.7847    0.4009 H         1 <0>         0.1554
     45 H20         4.0022    6.5214   -1.7601 H         1 <0>         0.4590
@<TRIPOS>BOND
     1    1    6 ar
     2    1    2 ar
     3    1   26 1
     4    2    3 ar
     5    2   27 1
     6    3    4 ar
     7    3   10 1
     8    4    5 ar
     9    4   28 1
    10    5    6 ar
    11    5    7 1
    12    6   29 1
    13    7    8 2
    14    7    9 1
    15   10   11 2
    16   10   16 1
    17   11   12 1
    18   12   13 1
    19   12   30 1
    20   13   14 2
    21   13   15 1
    22   15   31 1
    23   15   32 1
    24   16   21 1
    25   16   24 1
    26   16   17 1
    27   17   18 1
    28   17   33 1
    29   17   34 1
    30   18   25 1
    31   18   19 1
    32   18   45 1
    33   19   20 1
    34   19   35 1
    35   19   36 1
    36   20   21 1
    37   20   22 1
    38   21   37 1
    39   21   38 1
    40   22   23 1
    41   22   39 1
    42   22   40 1
    43   23   24 1
    44   23   25 1
    45   24   41 1
    46   24   42 1
    47   25   43 1
    48   25   44 1
@<TRIPOS>MOLECULE
ZINC43018910
   45    47     0     0     0
SMALL
USER_CHARGES

@<TRIPOS>ATOM
      1 C1          0.0060    1.4387    0.4900 C.3       1 <0>        -0.1216
      2 C2          0.0141   -0.0396    0.1969 C.ar      1 <0>        -0.1067
      3 C3         -1.1264   -0.7949    0.3786 C.ar      1 <0>         0.1313
      4 N1         -1.1276   -2.0895    0.1238 N.ar      1 <0>        -0.4303
      5 C4         -0.0499   -2.7149   -0.3112 C.ar      1 <0>         0.1509
      6 C5          1.1296   -2.0302   -0.5181 C.ar      1 <0>        -0.1010
      7 C6          1.1709   -0.6609   -0.2664 C.ar      1 <0>         0.2236
      8 O1          2.3112    0.0488   -0.4626 O.3       1 <0>        -0.3172
      9 C7          3.2099    0.1516    0.6437 C.3       1 <0>         0.0295
     10 C8          2.3552   -2.7528   -1.0150 C.3       1 <0>        -0.1259
     11 C9         -0.1086   -4.1957   -0.5849 C.3       1 <0>         0.1598
     12 N2         -1.4875   -4.6663   -0.4325 N.pl3     1 <0>        -0.6233
     13 C10        -1.9850   -5.0308    0.8113 C.ar      1 <0>         0.4361
     14 C11        -2.9910   -6.0028    0.8757 C.ar      1 <0>        -0.0183
     15 C12        -3.4889   -6.3591    2.1167 C.ar      1 <0>         0.2638
     16 N3         -2.9917   -5.7684    3.1981 N.ar      1 <0>        -0.5476
     17 C13        -2.0380   -4.8553    3.1022 C.ar      1 <0>         0.6075
     18 N4         -1.5357   -4.4854    1.9309 N.ar      1 <0>        -0.5975
     19 N5         -1.5500   -4.2682    4.2589 N.pl3     1 <0>        -0.8057
     20 Cl1        -4.7398   -7.5545    2.2580 Cl        1 <0>         0.0243
     21 N6         -3.4641   -6.5931   -0.3033 N.am      1 <0>        -0.6399
     22 C14        -3.1720   -6.0492   -1.5017 C.2       1 <0>         0.5140
     23 O2         -3.5461   -6.5973   -2.5172 O.2       1 <0>        -0.4883
     24 C15        -2.3875   -4.7607   -1.5915 C.3       1 <0>         0.1387
     25 H1         -1.8003   -4.7547   -2.5099 H         1 <0>         0.1470
     26 C16        -3.3487   -3.5703   -1.5905 C.3       1 <0>        -0.1794
     27 H2         -0.2816    1.9855   -0.4080 H         1 <0>         0.1026
     28 H3         -0.7081    1.6472    1.2867 H         1 <0>         0.0919
     29 H4          1.0017    1.7524    0.8032 H         1 <0>         0.0919
     30 H5         -2.0292   -0.3205    0.7340 H         1 <0>         0.2093
     31 H6          3.5332   -0.8454    0.9429 H         1 <0>         0.0645
     32 H7          4.0780    0.7431    0.3528 H         1 <0>         0.1220
     33 H8          2.7039    0.6355    1.4791 H         1 <0>         0.0642
     34 H9          2.3224   -2.8183   -2.1025 H         1 <0>         0.1052
     35 H10         3.2477   -2.2060   -0.7108 H         1 <0>         0.0953
     36 H11         2.3820   -3.7566   -0.5912 H         1 <0>         0.0918
     37 H12         0.2317   -4.3910   -1.6019 H         1 <0>         0.1449
     38 H13         0.5348   -4.7214    0.1207 H         1 <0>         0.1388
     39 H14        -1.9073   -4.5279    5.1225 H         1 <0>         0.4267
     40 H15        -0.8513   -3.5976    4.2049 H         1 <0>         0.4178
     41 H16        -4.0043   -7.3974   -0.2572 H         1 <0>         0.4236
     42 H17        -2.7788   -2.6430   -1.6481 H         1 <0>         0.0659
     43 H18        -4.0155   -3.6410   -2.4499 H         1 <0>         0.1071
     44 H19        -3.9367   -3.5790   -0.6727 H         1 <0>         0.0704
     45 H20        -1.9435   -2.5960    0.2605 H         1 <0>         0.4423
@<TRIPOS>BOND
     1    1    2 1
     2    1   27 1
     3    1   28 1
     4    1   29 1
     5    2    7 ar
     6    2    3 ar
     7    3    4 ar
     8    3   30 1
     9    4    5 ar
    10    4   45 1
    11    5    6 ar
    12    5   11 1
    13    6    7 ar
    14    6   10 1
    15    7    8 1
    16    8    9 1
    17    9   31 1
    18    9   32 1
    19    9   33 1
    20   10   34 1
    21   10   35 1
    22   10   36 1
    23   11   12 1
    24   11   37 1
    25   11   38 1
    26   12   24 1
    27   12   13 1
    28   13   18 ar
    29   13   14 ar
    30   14   15 ar
    31   14   21 1
    32   15   16 ar
    33   15   20 1
    34   16   17 ar
    35   17   18 ar
    36   17   19 1
    37   19   39 1
    38   19   40 1
    39   21   22 am
    40   21   41 1
    41   22   23 2
    42   22   24 1
    43   24   25 1
    44   24   26 1
    45   26   42 1
    46   26   43 1
    47   26   44 1
@<TRIPOS>MOLECULE
ZINC58178355
   56    57     0     0     0
SMALL
USER_CHARGES

@<TRIPOS>ATOM
      1 C1          2.7702   -0.5854    2.1849 C.3       1 <0>        -0.1874
      2 C2          4.2907   -0.4647    2.0649 C.3       1 <0>         0.1356
      3 C3          4.7003    1.0006    2.2264 C.3       1 <0>        -0.1882
      4 C4          4.9567   -1.3038    3.1573 C.3       1 <0>        -0.1441
      5 O1          4.7062   -0.9368    0.7818 O.3       1 <0>        -0.3528
      6 C5          4.2068   -0.3008   -0.2947 C.2       1 <0>         0.6552
      7 O2          3.4390    0.6296   -0.1486 O.2       1 <0>        -0.5428
      8 N1          4.5583   -0.6963   -1.5343 N.am      1 <0>        -0.7350
      9 C6          4.0148   -0.0042   -2.7056 C.3       1 <0>         0.1105
     10 C7          4.6624   -0.5632   -3.9741 C.3       1 <0>         0.0192
     11 H1          4.1948   -0.1120   -4.8493 H         1 <0>         0.1635
     12 C8          6.1572   -0.2360   -3.9697 C.3       1 <0>        -0.1411
     13 C9          6.8007   -0.7970   -5.2410 C.3       1 <0>        -0.1378
     14 C10         6.5367   -2.3037   -5.3129 C.3       1 <0>        -0.1441
     15 C11         5.0278   -2.5543   -5.2676 C.3       1 <0>        -0.0183
     16 N2          4.4772   -2.0186   -4.0168 N.4       1 <0>        -0.3718
     17 C12         3.0436   -2.3307   -3.9420 C.3       1 <0>        -0.0415
     18 C13         2.8601   -3.8208   -3.8110 C.2       1 <0>         0.5152
     19 O3          3.8278   -4.5505   -3.7828 O.2       1 <0>        -0.4508
     20 N3          1.6202   -4.3420   -3.7252 N.am      1 <0>        -0.6755
     21 C14         1.4561   -5.6746   -3.6081 C.2       1 <0>         0.6973
     22 O4          2.4262   -6.4063   -3.5798 O.2       1 <0>        -0.5143
     23 N4          0.2162   -6.1959   -3.5224 N.am      1 <0>        -0.6980
     24 C15         0.0377   -7.6444   -3.3950 C.3       1 <0>         0.0829
     25 C16        -1.0545   -8.2989   -4.2432 C.3       1 <0>        -0.1867
     26 C17        -1.2490   -8.1423   -2.7338 C.3       1 <0>        -0.1820
     27 H2          2.2957    0.0123    1.4067 H         1 <0>         0.0851
     28 H3          2.4784   -1.6293    2.0699 H         1 <0>         0.0603
     29 H4          2.4532   -0.2253    3.1637 H         1 <0>         0.0780
     30 H5          4.3833    1.3607    3.2051 H         1 <0>         0.0777
     31 H6          5.7835    1.0866    2.1409 H         1 <0>         0.0624
     32 H7          4.2258    1.5983    1.4482 H         1 <0>         0.0856
     33 H8          4.6649   -2.3477    3.0423 H         1 <0>         0.0684
     34 H9          6.0400   -1.2178    3.0718 H         1 <0>         0.0697
     35 H10         4.6398   -0.9436    4.1361 H         1 <0>         0.0876
     36 H11         5.1712   -1.4390   -1.6508 H         1 <0>         0.3993
     37 H12         2.9366   -0.1575   -2.7502 H         1 <0>         0.0983
     38 H13         4.2274    1.0621   -2.6287 H         1 <0>         0.1258
     39 H14         6.2931    0.8451   -3.9395 H         1 <0>         0.1212
     40 H15         6.6259   -0.6869   -3.0950 H         1 <0>         0.0899
     41 H16         6.3681   -0.3090   -6.1144 H         1 <0>         0.0858
     42 H17         7.8753   -0.6161   -5.2159 H         1 <0>         0.0993
     43 H18         6.9438   -2.7007   -6.2428 H         1 <0>         0.1171
     44 H19         7.0132   -2.7976   -4.4661 H         1 <0>         0.0904
     45 H20         4.5523   -2.0603   -6.1149 H         1 <0>         0.1325
     46 H21         4.8362   -3.6261   -5.3187 H         1 <0>         0.1454
     47 H22         2.6083   -1.8334   -3.0752 H         1 <0>         0.1671
     48 H23         2.5481   -1.9818   -4.8479 H         1 <0>         0.1725
     49 H24         0.8460   -3.7581   -3.7478 H         1 <0>         0.4192
     50 H25        -0.5581   -5.6120   -3.5449 H         1 <0>         0.4038
     51 H26         0.9485   -8.2165   -3.2180 H         1 <0>         0.1443
     52 H27        -1.6404   -7.6518   -4.8960 H         1 <0>         0.1003
     53 H28        -0.8625   -9.3018   -4.6246 H         1 <0>         0.1096
     54 H29        -1.1849   -9.0422   -2.1220 H         1 <0>         0.1112
     55 H30        -1.9628   -7.3921   -2.3934 H         1 <0>         0.1011
     56 H31         4.9524   -2.4403   -3.2329 H         1 <0>         0.4239
@<TRIPOS>BOND
     1    1    2 1
     2    1   27 1
     3    1   28 1
     4    1   29 1
     5    2    3 1
     6    2    4 1
     7    2    5 1
     8    3   30 1
     9    3   31 1
    10    3   32 1
    11    4   33 1
    12    4   34 1
    13    4   35 1
    14    5    6 1
    15    6    7 2
    16    6    8 am
    17    8    9 1
    18    8   36 1
    19    9   10 1
    20    9   37 1
    21    9   38 1
    22   10   11 1
    23   10   16 1
    24   10   12 1
    25   12   13 1
    26   12   39 1
    27   12   40 1
    28   13   14 1
    29   13   41 1
    30   13   42 1
    31   14   15 1
    32   14   43 1
    33   14   44 1
    34   15   16 1
    35   15   45 1
    36   15   46 1
    37   16   17 1
    38   16   56 1
    39   17   18 1
    40   17   47 1
    41   17   48 1
    42   18   19 2
    43   18   20 am
    44   20   21 am
    45   20   49 1
    46   21   22 2
    47   21   23 am
    48   23   24 1
    49   23   50 1
    50   24   26 1
    51   24   25 1
    52   24   51 1
    53   25   26 1
    54   25   52 1
    55   25   53 1
    56   26   54 1
    57   26   55 1
@<TRIPOS>MOLECULE
ZINC64375889
   48    50     0     0     0
SMALL
USER_CHARGES

@<TRIPOS>ATOM
      1 C1         -0.0167    1.3797    0.0096 C.ar      1 <0>        -0.0874
      2 C2          1.1676    2.0954    0.0022 C.ar      1 <0>        -0.1302
      3 C3          2.3783    1.4324   -0.0218 C.ar      1 <0>        -0.0780
      4 C4          2.4027    0.0407   -0.0442 C.ar      1 <0>        -0.1064
      5 C5          1.2050   -0.6767   -0.0164 C.ar      1 <0>        -0.0454
      6 C6          0.0021   -0.0041    0.0020 C.ar      1 <0>        -0.1255
      7 C7          1.2438   -2.1820    0.0160 C.3       1 <0>        -0.0849
      8 C8          2.4262   -2.6905   -0.8060 C.3       1 <0>        -0.0539
      9 C9          3.6921   -1.9784   -0.4159 C.2       1 <0>        -0.7188
     10 C10         3.6807   -0.6993   -0.0759 C.2       1 <0>         0.0706
     11 S1          5.2165   -2.8620   -0.4115 S.o2      1 <0>         2.6866
     12 O1          6.1798   -2.0069    0.1886 O.2       1 <0>        -0.9424
     13 O2          4.9320   -4.1603    0.0913 O.2       1 <0>        -0.9325
     14 N1          5.6746   -3.0560   -1.9910 N.pl3     1 <0>        -0.9162
     15 N2          5.8973   -1.9332   -2.7988 N.am      1 <0>        -0.5130
     16 C11         7.0753   -1.7848   -3.4365 C.2       1 <0>         0.7216
     17 O3          7.2686   -0.8103   -4.1375 O.2       1 <0>        -0.5628
     18 N3          8.0391   -2.7165   -3.2971 N.am      1 <0>        -0.7424
     19 C12         9.3196   -2.5552   -3.9903 C.3       1 <0>         0.1376
     20 C13        10.2286   -3.7423   -3.6653 C.3       1 <0>        -0.1575
     21 C14        11.5659   -3.5738   -4.3893 C.3       1 <0>         0.0959
     22 N4         12.4362   -4.7105   -4.0781 N.pl3     1 <0>        -0.4087
     23 C15        13.3161   -4.7976   -3.0332 C.2       1 <0>         0.0263
     24 C16        13.9065   -6.0048   -3.1206 C.2       1 <0>         0.0043
     25 N5         13.4009   -6.6375   -4.1897 N.pl3     1 <0>        -0.4760
     26 C17        12.5160   -5.8703   -4.7652 C.cat     1 <0>         0.2885
     27 H1         -0.9608    1.9039    0.0260 H         1 <0>         0.1302
     28 H2          1.1447    3.1751    0.0148 H         1 <0>         0.1314
     29 H3          3.3026    1.9911   -0.0236 H         1 <0>         0.1319
     30 H4         -0.9257   -0.5568    0.0108 H         1 <0>         0.1307
     31 H5          1.3482   -2.5193    1.0472 H         1 <0>         0.0862
     32 H6          0.3171   -2.5770   -0.4004 H         1 <0>         0.0891
     33 H7          2.5488   -3.7600   -0.6347 H         1 <0>         0.0895
     34 H8          2.2286   -2.5176   -1.8639 H         1 <0>         0.0815
     35 H9          4.6032   -0.1980    0.1772 H         1 <0>         0.1476
     36 H10         5.7887   -3.9471   -2.3569 H         1 <0>         0.4226
     37 H11         5.2036   -1.2626   -2.8991 H         1 <0>         0.4369
     38 H12         7.8849   -3.4939   -2.7379 H         1 <0>         0.3998
     39 H13         9.1478   -2.5130   -5.0658 H         1 <0>         0.0809
     40 H14         9.7967   -1.6318   -3.6620 H         1 <0>         0.0815
     41 H15        10.4004   -3.7846   -2.5898 H         1 <0>         0.0907
     42 H16         9.7515   -4.6658   -3.9936 H         1 <0>         0.0876
     43 H17        11.3940   -3.5316   -5.4648 H         1 <0>         0.1279
     44 H18        12.0429   -2.6504   -4.0610 H         1 <0>         0.1309
     45 H19        13.5015   -4.0430   -2.2831 H         1 <0>         0.2238
     46 H20        14.6558   -6.3950   -2.4477 H         1 <0>         0.2243
     47 H21        11.9440   -6.1205   -5.6465 H         1 <0>         0.2602
     48 H22        13.6509   -7.5267   -4.4861 H         1 <0>         0.4658
@<TRIPOS>BOND
     1    1    6 ar
     2    1    2 ar
     3    1   27 1
     4    2    3 ar
     5    2   28 1
     6    3    4 ar
     7    3   29 1
     8    4   10 1
     9    4    5 ar
    10    5    6 ar
    11    5    7 1
    12    6   30 1
    13    7    8 1
    14    7   31 1
    15    7   32 1
    16    8    9 1
    17    8   33 1
    18    8   34 1
    19    9   10 2
    20    9   11 1
    21   10   35 1
    22   11   12 2
    23   11   13 2
    24   11   14 1
    25   14   15 1
    26   14   36 1
    27   15   16 am
    28   15   37 1
    29   16   17 2
    30   16   18 am
    31   18   19 1
    32   18   38 1
    33   19   20 1
    34   19   39 1
    35   19   40 1
    36   20   21 1
    37   20   41 1
    38   20   42 1
    39   21   22 1
    40   21   43 1
    41   21   44 1
    42   22   26 1
    43   22   23 1
    44   23   24 2
    45   23   45 1
    46   24   25 1
    47   24   46 1
    48   25   26 2
    49   25   48 1
    50   26   47 1
@<TRIPOS>MOLECULE
ZINC08881114
   64    67     0     0     0
SMALL
USER_CHARGES
N-(2-methoxyethyl)-2-[2-[2-(1-methylpyrrol-2-yl)pyrrolidin-1-yl]acetyl]amino-4,5,6,7-tetrahydrobenzothiophene-3-carboxamide
@<TRIPOS>ATOM
      1 C1         -1.1768   -0.8737    0.0090 C.3       1 <0>         0.0531
      2 N1          0.0021   -0.0041    0.0020 N.pl3     1 <0>        -0.4267
      3 C2          1.2991   -0.4242   -0.0126 C.2       1 <0>         0.0237
      4 C3          2.0949    0.6644   -0.0144 C.2       1 <0>        -0.1838
      5 C4          1.2586    1.7982   -0.0003 C.2       1 <0>        -0.1912
      6 C5         -0.0164    1.3592    0.0095 C.2       1 <0>        -0.0435
      7 C6         -1.2491    2.2260    0.0203 C.3       1 <0>         0.1112
      8 H1         -1.8097    2.0855   -0.9039 H         1 <0>         0.1467
      9 C7         -2.1325    1.8667    1.2294 C.3       1 <0>        -0.1458
     10 C8         -2.2474    3.1731    2.0480 C.3       1 <0>        -0.1422
     11 C9         -1.9294    4.2682    0.9991 C.3       1 <0>        -0.0154
     12 C10        -0.7642    4.3056   -1.1385 C.3       1 <0>        -0.0163
     13 C11        -0.6156    5.7923   -0.9420 C.2       1 <0>         0.4999
     14 O1         -0.5956    6.2570    0.1781 O.2       1 <0>        -0.4942
     15 N2         -0.5048    6.6056   -2.0110 N.am      1 <0>        -0.5919
     16 C12        -0.3680    7.9736   -1.8302 C.2       1 <0>         0.0324
     17 C13        -0.2417    8.9625   -2.7954 C.2       1 <0>        -0.1846
     18 C14        -0.1114   10.3352   -2.3374 C.2       1 <0>        -0.0718
     19 C15        -0.1278   10.4983   -0.9967 C.2       1 <0>        -0.1817
     20 S1         -0.3209    8.8638   -0.3445 S.3       1 <0>         0.2316
     21 C16        -0.0126   11.7867   -0.2420 C.3       1 <0>        -0.0417
     22 C17         0.5035   12.8663   -1.2044 C.3       1 <0>        -0.1157
     23 C18        -0.3125   12.8041   -2.4988 C.3       1 <0>        -0.1217
     24 C19         0.0346   11.5302   -3.2715 C.3       1 <0>        -0.0626
     25 C20        -0.2404    8.6344   -4.2245 C.2       1 <0>         0.5719
     26 O2         -1.2880    8.6063   -4.8434 O.2       1 <0>        -0.5252
     27 N3          0.9210    8.3639   -4.8526 N.am      1 <0>        -0.7158
     28 C21         0.9223    8.0360   -6.2805 C.3       1 <0>         0.1196
     29 C22         2.3573    7.7739   -6.7422 C.3       1 <0>         0.0452
     30 O3          2.8635    6.6095   -6.0865 O.3       1 <0>        -0.3949
     31 C23         4.2045    6.2748   -6.4494 C.3       1 <0>         0.0297
     32 H2         -1.4794   -1.0839   -1.0168 H         1 <0>         0.0846
     33 H3         -0.9359   -1.8084    0.5155 H         1 <0>         0.0979
     34 H4         -1.9924   -0.3760    0.5337 H         1 <0>         0.0885
     35 H5          1.6317   -1.4517   -0.0208 H         1 <0>         0.1773
     36 H6          3.1748    0.6668   -0.0250 H         1 <0>         0.1499
     37 H7          1.5797    2.8294    0.0019 H         1 <0>         0.1341
     38 H8         -3.1178    1.5419    0.8949 H         1 <0>         0.1094
     39 H9         -1.6594    1.0858    1.8249 H         1 <0>         0.1062
     40 H10        -3.2573    3.2955    2.4393 H         1 <0>         0.1200
     41 H11        -1.5174    3.1867    2.8572 H         1 <0>         0.1013
     42 H12        -2.8089    4.4882    0.3939 H         1 <0>         0.1318
     43 H13        -1.5629    5.1721    1.4856 H         1 <0>         0.1661
     44 H14         0.1044    3.9211   -1.6730 H         1 <0>         0.1682
     45 H15        -1.6656    4.1039   -1.7173 H         1 <0>         0.1648
     46 H16        -0.5208    6.2340   -2.9068 H         1 <0>         0.4272
     47 H17        -0.9906   12.0753    0.1432 H         1 <0>         0.0880
     48 H18         0.6869   11.6665    0.5852 H         1 <0>         0.0854
     49 H19         0.3884   13.8489   -0.7468 H         1 <0>         0.0791
     50 H20         1.5552   12.6853   -1.4264 H         1 <0>         0.0700
     51 H21        -1.3754   12.8032   -2.2571 H         1 <0>         0.0690
     52 H22        -0.0819   13.6736   -3.1144 H         1 <0>         0.0751
     53 H23         1.0616   11.5889   -3.6319 H         1 <0>         0.0799
     54 H24        -0.6454   11.4190   -4.1161 H         1 <0>         0.0783
     55 H25         1.7559    8.3862   -4.3594 H         1 <0>         0.4060
     56 H26         0.3179    7.1448   -6.4492 H         1 <0>         0.0789
     57 H27         0.5056    8.8700   -6.8452 H         1 <0>         0.0890
     58 H28         2.3690    7.6175   -7.8209 H         1 <0>         0.0726
     59 H29         2.9817    8.6318   -6.4926 H         1 <0>         0.0605
     60 H30         4.2546    6.0873   -7.5220 H         1 <0>         0.0464
     61 H31         4.8672    7.1016   -6.1938 H         1 <0>         0.0449
     62 H32         4.5146    5.3803   -5.9093 H         1 <0>         0.0879
     63 N4         -0.8783    3.6316    0.1899 N.4       1 <0>        -0.3737
     64 H33         0.0224    3.6961    0.6785 H         1 <0>         0.4372
@<TRIPOS>BOND
     1    1    2 1
     2    1   32 1
     3    1   33 1
     4    1   34 1
     5    2    6 1
     6    2    3 1
     7    3    4 2
     8    3   35 1
     9    4    5 1
    10    4   36 1
    11    5    6 2
    12    5   37 1
    13    6    7 1
    14    7    8 1
    15    7    9 1
    16    7   63 1
    17    9   10 1
    18    9   38 1
    19    9   39 1
    20   10   11 1
    21   10   40 1
    22   10   41 1
    23   11   42 1
    24   11   43 1
    25   11   63 1
    26   12   13 1
    27   12   44 1
    28   12   45 1
    29   12   63 1
    30   13   14 2
    31   13   15 am
    32   15   16 1
    33   15   46 1
    34   16   20 1
    35   16   17 2
    36   17   18 1
    37   17   25 1
    38   18   24 1
    39   18   19 2
    40   19   20 1
    41   19   21 1
    42   21   22 1
    43   21   47 1
    44   21   48 1
    45   22   23 1
    46   22   49 1
    47   22   50 1
    48   23   24 1
    49   23   51 1
    50   23   52 1
    51   24   53 1
    52   24   54 1
    53   25   26 2
    54   25   27 am
    55   27   28 1
    56   27   55 1
    57   28   29 1
    58   28   56 1
    59   28   57 1
    60   29   30 1
    61   29   58 1
    62   29   59 1
    63   30   31 1
    64   31   60 1
    65   31   61 1
    66   31   62 1
    67   63   64 1
@<TRIPOS>MOLECULE
ZINC13012955
   62    64     0     0     0
SMALL
USER_CHARGES
N-[[2-(diethylaminomethyl)phenyl]methyl]-2-[(4S)-4-(4-fluorophenyl)-4-methyl-2,5-dioxo-imidazolidin-1-yl]acetamide
@<TRIPOS>ATOM
      1 C1         -0.4053   -8.1093   -3.7341 C.3       1 <0>        -0.1849
      2 C2          0.1998   -6.9967   -4.5925 C.3       1 <0>        -0.0132
      3 C3         -1.3360   -5.3822   -3.6453 C.3       1 <0>        -0.0144
      4 C4         -2.0067   -5.0008   -4.9665 C.3       1 <0>        -0.1882
      5 C5          0.8378   -5.7228   -2.6348 C.3       1 <0>         0.0373
      6 C6          2.3097   -5.8204   -2.9430 C.ar      1 <0>        -0.1411
      7 C7          2.9567   -7.0385   -2.8477 C.ar      1 <0>        -0.0900
      8 C8          4.3066   -7.1280   -3.1308 C.ar      1 <0>        -0.1015
      9 C9          5.0099   -5.9995   -3.5095 C.ar      1 <0>        -0.0838
     10 C10         4.3619   -4.7828   -3.6099 C.ar      1 <0>        -0.0890
     11 C11         3.0128   -4.6922   -3.3216 C.ar      1 <0>        -0.0940
     12 C12         2.3075   -3.3646   -3.4260 C.3       1 <0>         0.1589
     13 N1          2.1634   -2.7818   -2.0896 N.am      1 <0>        -0.7306
     14 C13         1.5582   -1.5872   -1.9371 C.2       1 <0>         0.5024
     15 O1          1.1330   -0.9947   -2.9062 O.2       1 <0>        -0.5116
     16 C14         1.4100   -0.9876   -0.5625 C.3       1 <0>         0.0987
     17 N2          0.7243    0.3030   -0.6640 N.am      1 <0>        -0.5613
     18 C15        -0.6129    0.4571   -0.5987 C.2       1 <0>         0.5462
     19 O2         -1.4440   -0.4133   -0.4517 O.2       1 <0>        -0.4603
     20 C16        -0.8618    1.9448   -0.7481 C.3       1 <0>         0.1721
     21 N3          0.4910    2.5093   -0.8939 N.am      1 <0>        -0.7131
     22 C17         1.3484    1.4745   -0.8321 C.2       1 <0>         0.7104
     23 O3          2.5551    1.5908   -0.9189 O.2       1 <0>        -0.5303
     24 C18        -1.5467    2.5041    0.5005 C.3       1 <0>        -0.1477
     25 C19        -1.6878    2.2234   -1.9774 C.ar      1 <0>        -0.1105
     26 C20        -2.5945    1.2821   -2.4281 C.ar      1 <0>        -0.0776
     27 C21        -3.3560    1.5385   -3.5525 C.ar      1 <0>        -0.1496
     28 C22        -3.2030    2.7341   -4.2338 C.ar      1 <0>         0.1137
     29 C23        -2.2908    3.6739   -3.7845 C.ar      1 <0>        -0.1489
     30 C24        -1.5342    3.4175   -2.6568 C.ar      1 <0>        -0.0639
     31 F1         -3.9436    2.9838   -5.3358 F         1 <0>        -0.1330
     32 H1          0.0770   -8.1171   -2.7567 H         1 <0>         0.0784
     33 H2         -1.4738   -7.9326   -3.6107 H         1 <0>         0.0821
     34 H3         -0.2502   -9.0708   -4.2235 H         1 <0>         0.1067
     35 H4         -0.3293   -6.9433   -5.5440 H         1 <0>         0.1296
     36 H5          1.2532   -7.2101   -4.7741 H         1 <0>         0.1278
     37 H6         -1.8429   -6.2467   -3.2167 H         1 <0>         0.1358
     38 H7         -1.3976   -4.5439   -2.9513 H         1 <0>         0.1274
     39 H8         -3.0515   -4.7493   -4.7842 H         1 <0>         0.1079
     40 H9         -1.4958   -4.1401   -5.3982 H         1 <0>         0.0795
     41 H10        -1.9507   -5.8412   -5.6583 H         1 <0>         0.0805
     42 H11         0.5353   -6.5792   -2.0322 H         1 <0>         0.1426
     43 H12         0.6423   -4.8032   -2.0832 H         1 <0>         0.1316
     44 H13         2.4073   -7.9201   -2.5522 H         1 <0>         0.1352
     45 H14         4.8119   -8.0796   -3.0567 H         1 <0>         0.1394
     46 H15         6.0646   -6.0696   -3.7311 H         1 <0>         0.1401
     47 H16         4.9103   -3.9021   -3.9100 H         1 <0>         0.1393
     48 H17         1.3214   -3.5107   -3.8669 H         1 <0>         0.0562
     49 H18         2.8906   -2.6918   -4.0548 H         1 <0>         0.0948
     50 H19         2.5035   -3.2556   -1.3146 H         1 <0>         0.4091
     51 H20         2.3961   -0.8415   -0.1215 H         1 <0>         0.1353
     52 H21         0.8269   -1.6604    0.0664 H         1 <0>         0.1299
     53 H22         0.7192    3.4447   -1.0118 H         1 <0>         0.4444
     54 H23        -0.9155    2.3270    1.3713 H         1 <0>         0.0762
     55 H24        -1.7055    3.5756    0.3787 H         1 <0>         0.0879
     56 H25        -2.5071    2.0082    0.6410 H         1 <0>         0.0896
     57 H26        -2.7108    0.3479   -1.8989 H         1 <0>         0.1462
     58 H27        -4.0673    0.8047   -3.9021 H         1 <0>         0.1401
     59 H28        -2.1704    4.6067   -4.3153 H         1 <0>         0.1440
     60 H29        -0.8229    4.1505   -2.3059 H         1 <0>         0.1345
     61 N4          0.0853   -5.6924   -3.9066 N.4       1 <0>        -0.3964
     62 H30         0.4805   -4.9622   -4.5106 H         1 <0>         0.4233
@<TRIPOS>BOND
     1    1    2 1
     2    1   32 1
     3    1   33 1
     4    1   34 1
     5    2   35 1
     6    2   36 1
     7    2   61 1
     8    3    4 1
     9    3   37 1
    10    3   38 1
    11    3   61 1
    12    4   39 1
    13    4   40 1
    14    4   41 1
    15    5    6 1
    16    5   42 1
    17    5   43 1
    18    5   61 1
    19    6   11 ar
    20    6    7 ar
    21    7    8 ar
    22    7   44 1
    23    8    9 ar
    24    8   45 1
    25    9   10 ar
    26    9   46 1
    27   10   11 ar
    28   10   47 1
    29   11   12 1
    30   12   13 1
    31   12   48 1
    32   12   49 1
    33   13   14 am
    34   13   50 1
    35   14   15 2
    36   14   16 1
    37   16   17 1
    38   16   51 1
    39   16   52 1
    40   17   22 am
    41   17   18 am
    42   18   19 2
    43   18   20 1
    44   20   21 1
    45   20   24 1
    46   20   25 1
    47   21   22 am
    48   21   53 1
    49   22   23 2
    50   24   54 1
    51   24   55 1
    52   24   56 1
    53   25   30 ar
    54   25   26 ar
    55   26   27 ar
    56   26   57 1
    57   27   28 ar
    58   27   58 1
    59   28   29 ar
    60   28   31 1
    61   29   30 ar
    62   29   59 1
    63   30   60 1
    64   61   62 1
@<TRIPOS>MOLECULE
ZINC36206490
   68    71     0     0     0
SMALL
USER_CHARGES

@<TRIPOS>ATOM
      1 C1          1.7627   -2.1953   -1.6813 C.3       1 <0>        -0.1539
      2 C2          0.8288   -1.7775   -0.5436 C.3       1 <0>        -0.1503
      3 C3         -0.5216   -2.4774   -0.7093 C.3       1 <0>         0.0795
      4 H1         -0.9219   -2.2646   -1.7005 H         1 <0>         0.1253
      5 C4         -1.4950   -1.9658    0.3545 C.3       1 <0>        -0.0614
      6 N1         -2.8393   -2.4916    0.0816 N.4       1 <0>        -0.3622
      7 C5         -3.2184   -2.1727   -1.3014 C.3       1 <0>        -0.0217
      8 C6         -3.3102   -0.6546   -1.4679 C.3       1 <0>         0.0287
      9 N2         -3.8134   -0.3389   -2.8114 N.3       1 <0>        -0.5283
     10 C7         -2.8463   -0.7395   -3.8438 C.3       1 <0>         0.0071
     11 C8         -3.4345   -0.4480   -5.2269 C.3       1 <0>         0.0606
     12 O1         -3.7744    0.9385   -5.3123 O.3       1 <0>        -0.3779
     13 C9         -4.7148    1.3628   -4.3219 C.3       1 <0>         0.0603
     14 C10        -4.1396    1.0897   -2.9296 C.3       1 <0>         0.0182
     15 C11        -2.8418   -3.9489    0.2664 C.3       1 <0>         0.0219
     16 C12        -2.5906   -4.2718    1.7168 C.2       1 <0>         0.3626
     17 N3         -2.5458   -5.5695    2.1134 N.am      1 <0>        -0.6228
     18 H2         -2.6761   -6.2720    1.4573 H         1 <0>         0.4279
     19 C13        -2.3236   -5.9005    3.3988 C.2       1 <0>         0.5510
     20 O2         -2.2854   -7.0705    3.7389 O.2       1 <0>        -0.4694
     21 C14        -2.1322   -4.8577    4.3607 C.2       1 <0>        -0.1990
     22 C15        -1.8790   -4.9586    5.7929 C.2       1 <0>        -0.0156
     23 C16        -1.7289   -3.8188    6.5100 C.2       1 <0>        -0.1575
     24 S1         -1.9214   -2.5347    5.2888 S.3       1 <0>         0.1894
     25 C17        -2.1961   -3.5478    3.8584 C.2       1 <0>         0.0646
     26 N4         -2.4145   -3.2986    2.5698 N.2       1 <0>        -0.4972
     27 C18        -1.7879   -6.2832    6.4522 C.ar      1 <0>        -0.0486
     28 C19        -2.7397   -6.6608    7.3987 C.ar      1 <0>        -0.0973
     29 C20        -2.6500   -7.8951    8.0087 C.ar      1 <0>        -0.0889
     30 C21        -1.6183   -8.7575    7.6829 C.ar      1 <0>        -0.1033
     31 C22        -0.6713   -8.3884    6.7449 C.ar      1 <0>        -0.1145
     32 C23        -0.7537   -7.1584    6.1242 C.ar      1 <0>        -0.0489
     33 C24         0.2754   -6.7602    5.0978 C.3       1 <0>        -0.1090
     34 C25        -3.6776   -8.3045    9.0322 C.3       1 <0>        -0.1169
     35 O3         -0.3489   -3.8878   -0.5581 O.3       1 <0>        -0.5472
     36 H3          2.7248   -1.6967   -1.5633 H         1 <0>         0.0676
     37 H4          1.9075   -3.2753   -1.6545 H         1 <0>         0.0670
     38 H5          1.3212   -1.9114   -2.6366 H         1 <0>         0.0587
     39 H6          1.2704   -2.0614    0.4117 H         1 <0>         0.0788
     40 H7          0.6841   -0.6975   -0.5704 H         1 <0>         0.0834
     41 H8         -1.1668   -2.3006    1.3385 H         1 <0>         0.1541
     42 H9         -1.5194   -0.8763    0.3308 H         1 <0>         0.1445
     43 H10        -2.4668   -2.5684   -1.9846 H         1 <0>         0.1377
     44 H11        -4.1858   -2.6220   -1.5257 H         1 <0>         0.1477
     45 H12        -3.9908   -0.2476   -0.7201 H         1 <0>         0.1011
     46 H13        -2.3216   -0.2143   -1.3374 H         1 <0>         0.0613
     47 H14        -1.9222   -0.1760   -3.7151 H         1 <0>         0.0538
     48 H15        -2.6387   -1.8057   -3.7539 H         1 <0>         0.0863
     49 H16        -2.6987   -0.6903   -5.9937 H         1 <0>         0.1055
     50 H17        -4.3294   -1.0520   -5.3765 H         1 <0>         0.0649
     51 H18        -4.9050    2.4302   -4.4341 H         1 <0>         0.1074
     52 H19        -5.6470    0.8114   -4.4452 H         1 <0>         0.0656
     53 H20        -4.8761    1.3587   -2.1724 H         1 <0>         0.0947
     54 H21        -3.2362    1.6825   -2.7863 H         1 <0>         0.0535
     55 H22        -3.8095   -4.3515   -0.0332 H         1 <0>         0.1643
     56 H23        -2.0577   -4.3942   -0.3461 H         1 <0>         0.1990
     57 H24        -1.5386   -3.7135    7.5679 H         1 <0>         0.2070
     58 H25        -3.5453   -5.9883    7.6540 H         1 <0>         0.1212
     59 H26        -1.5520   -9.7225    8.1633 H         1 <0>         0.1254
     60 H27         0.1319   -9.0657    6.4945 H         1 <0>         0.1248
     61 H28         1.1051   -6.2550    5.5922 H         1 <0>         0.0688
     62 H29         0.6439   -7.6506    4.5883 H         1 <0>         0.0678
     63 H30        -0.1784   -6.0870    4.3705 H         1 <0>         0.0529
     64 H31        -4.5034   -8.8131    8.5346 H         1 <0>         0.0714
     65 H32        -3.2202   -8.9778    9.7571 H         1 <0>         0.0698
     66 H33        -4.0525   -7.4188    9.5451 H         1 <0>         0.0670
     67 H34        -0.0647   -4.1567    0.3262 H         1 <0>         0.3881
     68 H35        -3.5004   -2.0708    0.7171 H         1 <0>         0.4334
@<TRIPOS>BOND
     1    1    2 1
     2    1   36 1
     3    1   37 1
     4    1   38 1
     5    2    3 1
     6    2   39 1
     7    2   40 1
     8    3    4 1
     9    3    5 1
    10    3   35 1
    11    5    6 1
    12    5   41 1
    13    5   42 1
    14    6    7 1
    15    6   15 1
    16    6   68 1
    17    7    8 1
    18    7   43 1
    19    7   44 1
    20    8    9 1
    21    8   45 1
    22    8   46 1
    23    9   14 1
    24    9   10 1
    25   10   11 1
    26   10   47 1
    27   10   48 1
    28   11   12 1
    29   11   49 1
    30   11   50 1
    31   12   13 1
    32   13   14 1
    33   13   51 1
    34   13   52 1
    35   14   53 1
    36   14   54 1
    37   15   16 1
    38   15   55 1
    39   15   56 1
    40   16   26 2
    41   16   17 1
    42   17   18 1
    43   17   19 am
    44   19   20 2
    45   19   21 1
    46   21   25 2
    47   21   22 1
    48   22   23 2
    49   22   27 1
    50   23   24 1
    51   23   57 1
    52   24   25 1
    53   25   26 1
    54   27   32 ar
    55   27   28 ar
    56   28   29 ar
    57   28   58 1
    58   29   30 ar
    59   29   34 1
    60   30   31 ar
    61   30   59 1
    62   31   32 ar
    63   31   60 1
    64   32   33 1
    65   33   61 1
    66   33   62 1
    67   33   63 1
    68   34   64 1
    69   34   65 1
    70   34   66 1
    71   35   67 1
@<TRIPOS>MOLECULE
ZINC39674434
   71    74     0     0     0
SMALL
USER_CHARGES

@<TRIPOS>ATOM
      1 C1         -1.8984   -3.9845    0.9029 C.3       1 <0>        -0.1192
      2 C2         -3.2387   -4.1761    0.1903 C.3       1 <0>        -0.0324
      3 H1         -3.0899   -4.6150   -0.7963 H         1 <0>         0.1399
      4 C3         -3.9840   -2.8574    0.0845 C.2       1 <0>        -0.1554
      5 C4         -5.1076   -3.0672    0.7737 C.2       1 <0>        -0.0117
      6 N1         -5.1366   -4.3223    1.2741 N.2       1 <0>        -0.1619
      7 N2         -4.1446   -5.0089    0.9996 N.2       1 <0>        -0.1415
      8 C5         -6.1963   -2.0434    0.9677 C.3       1 <0>        -0.0946
      9 C6         -3.5546   -1.6030   -0.6319 C.3       1 <0>         0.2135
     10 H2         -4.3674   -0.8770   -0.6121 H         1 <0>         0.1095
     11 C7         -2.3267   -1.0129    0.0645 C.3       1 <0>        -0.1697
     12 N3         -3.2206   -1.9243   -2.0216 N.am      1 <0>        -0.7235
     13 C8         -3.3002   -0.9714   -2.9714 C.2       1 <0>         0.5240
     14 O1         -3.6484    0.1521   -2.6756 O.2       1 <0>        -0.5142
     15 C9         -2.9566   -1.3019   -4.4010 C.3       1 <0>        -0.1139
     16 H3         -2.2058   -2.0912   -4.4374 H         1 <0>         0.1126
     17 C10        -2.4488   -0.0420   -5.1373 C.3       1 <0>         0.1106
     18 N4         -3.0031   -0.1597   -6.5066 N.am      1 <0>        -0.6269
     19 C11        -4.3707   -0.6958   -6.3059 C.3       1 <0>         0.1074
     20 C12        -4.2184   -1.7274   -5.1704 C.3       1 <0>        -0.0723
     21 C13        -5.4365   -1.6846   -4.2528 C.3       1 <0>        -0.1477
     22 C14        -6.6682   -2.1676   -5.0238 C.3       1 <0>        -0.0077
     23 N5         -6.4410   -3.5355   -5.5054 N.4       1 <0>        -0.5048
     24 C15        -5.3258   -3.5516   -6.4597 C.3       1 <0>        -0.0114
     25 C16        -4.0373   -3.1273   -5.7493 C.3       1 <0>        -0.1334
     26 C17        -2.4000    0.1502   -7.6714 C.2       1 <0>         0.5398
     27 O2         -2.9906   -0.0029   -8.7196 O.2       1 <0>        -0.5262
     28 C18        -0.9918    0.6869   -7.6714 C.3       1 <0>        -0.1380
     29 C19        -0.5481    0.9549   -9.1109 C.3       1 <0>        -0.0991
     30 C20         0.8816    1.4998   -9.1109 C.3       1 <0>        -0.0802
     31 C21         1.3186    1.7637  -10.5287 C.ar      1 <0>        -0.0867
     32 C22         1.9394    0.7666  -11.2576 C.ar      1 <0>        -0.1179
     33 C23         2.3403    1.0088  -12.5582 C.ar      1 <0>        -0.1177
     34 C24         2.1199    2.2478  -13.1301 C.ar      1 <0>        -0.1217
     35 C25         1.4983    3.2446  -12.4015 C.ar      1 <0>        -0.1168
     36 C26         1.0935    3.0012  -11.1024 C.ar      1 <0>        -0.1171
     37 H4         -1.4880   -4.9576    1.1728 H         1 <0>         0.0831
     38 H5         -1.2044   -3.4689    0.2391 H         1 <0>         0.0791
     39 H6         -2.0480   -3.3905    1.8045 H         1 <0>         0.0679
     40 H7         -6.9220   -2.1270    0.1587 H         1 <0>         0.0785
     41 H8         -6.6938   -2.2183    1.9216 H         1 <0>         0.0868
     42 H9         -5.7605   -1.0443    0.9630 H         1 <0>         0.0796
     43 H10        -1.4784   -1.6853   -0.0635 H         1 <0>         0.0690
     44 H11        -2.0912   -0.0433   -0.3741 H         1 <0>         0.0750
     45 H12        -2.5357   -0.8899    1.1271 H         1 <0>         0.0746
     46 H13        -2.9421   -2.8228   -2.2582 H         1 <0>         0.3994
     47 H14        -2.8237    0.8590   -4.6518 H         1 <0>         0.1014
     48 H15        -1.3593   -0.0329   -5.1679 H         1 <0>         0.0951
     49 H16        -5.0519    0.1013   -6.0082 H         1 <0>         0.0841
     50 H17        -4.7261   -1.1815   -7.2147 H         1 <0>         0.0888
     51 H18        -5.2676   -2.3336   -3.3934 H         1 <0>         0.0950
     52 H19        -5.5989   -0.6624   -3.9111 H         1 <0>         0.1264
     53 H20        -7.5370   -2.1539   -4.3657 H         1 <0>         0.1394
     54 H21        -6.8461   -1.5084   -5.8735 H         1 <0>         0.1345
     55 H22        -6.2213   -4.1339   -4.7233 H         1 <0>         0.4270
     56 H23        -5.2050   -4.5582   -6.8601 H         1 <0>         0.1402
     57 H24        -5.5357   -2.8595   -7.2752 H         1 <0>         0.1350
     58 H25        -3.2133   -3.1222   -6.4627 H         1 <0>         0.1187
     59 H26        -3.8179   -3.8284   -4.9441 H         1 <0>         0.0946
     60 H27        -0.9569    1.6154   -7.1016 H         1 <0>         0.0990
     61 H28        -0.3243   -0.0444   -7.2156 H         1 <0>         0.0964
     62 H29        -0.5830    0.0263   -9.6807 H         1 <0>         0.0723
     63 H30        -1.2156    1.6861   -9.5667 H         1 <0>         0.0736
     64 H31         0.9165    2.4283   -8.5411 H         1 <0>         0.0743
     65 H32         1.5491    0.7685   -8.6551 H         1 <0>         0.0732
     66 H33         2.1116   -0.2014  -10.8108 H         1 <0>         0.1195
     67 H34         2.8260    0.2300  -13.1274 H         1 <0>         0.1225
     68 H35         2.4337    2.4372  -14.1460 H         1 <0>         0.1229
     69 H36         1.3264    4.2128  -12.8482 H         1 <0>         0.1231
     70 H37         0.6045    3.7787  -10.5344 H         1 <0>         0.1207
     71 H38        -7.2759   -3.8736   -5.9601 H         1 <0>         0.4352
@<TRIPOS>BOND
     1    1    2 1
     2    1   37 1
     3    1   38 1
     4    1   39 1
     5    2    3 1
     6    2    7 1
     7    2    4 1
     8    4    5 2
     9    4    9 1
    10    5    6 1
    11    5    8 1
    12    6    7 2
    13    8   40 1
    14    8   41 1
    15    8   42 1
    16    9   10 1
    17    9   11 1
    18    9   12 1
    19   11   43 1
    20   11   44 1
    21   11   45 1
    22   12   13 am
    23   12   46 1
    24   13   14 2
    25   13   15 1
    26   15   16 1
    27   15   20 1
    28   15   17 1
    29   17   18 1
    30   17   47 1
    31   17   48 1
    32   18   19 1
    33   18   26 am
    34   19   20 1
    35   19   49 1
    36   19   50 1
    37   20   25 1
    38   20   21 1
    39   21   22 1
    40   21   51 1
    41   21   52 1
    42   22   23 1
    43   22   53 1
    44   22   54 1
    45   23   24 1
    46   23   55 1
    47   23   71 1
    48   24   25 1
    49   24   56 1
    50   24   57 1
    51   25   58 1
    52   25   59 1
    53   26   27 2
    54   26   28 1
    55   28   29 1
    56   28   60 1
    57   28   61 1
    58   29   30 1
    59   29   62 1
    60   29   63 1
    61   30   31 1
    62   30   64 1
    63   30   65 1
    64   31   36 ar
    65   31   32 ar
    66   32   33 ar
    67   32   66 1
    68   33   34 ar
    69   33   67 1
    70   34   35 ar
    71   34   68 1
    72   35   36 ar
    73   35   69 1
    74   36   70 1
@<TRIPOS>MOLECULE
ZINC60036356
   67    69     0     0     0
SMALL
USER_CHARGES

@<TRIPOS>ATOM
      1 C1          4.1242   -4.3559    4.9741 C.3       1 <0>        -0.1199
      2 C2          3.2352   -4.4263    3.7593 C.ar      1 <0>        -0.0963
      3 C3          3.5548   -5.2791    2.7186 C.ar      1 <0>        -0.0679
      4 C4          2.7419   -5.3451    1.6039 C.ar      1 <0>        -0.1814
      5 C5          1.6037   -4.5551    1.5289 C.ar      1 <0>         0.1448
      6 C6          1.2851   -3.7008    2.5743 C.ar      1 <0>        -0.1307
      7 C7          2.0987   -3.6423    3.6895 C.ar      1 <0>        -0.1284
      8 C8          0.0497   -2.8414    2.4962 C.3       1 <0>        -0.0161
      9 C9         -1.1936   -3.7347    2.4460 C.3       1 <0>        -0.1421
     10 C10        -2.4375   -2.8564    2.2875 C.3       1 <0>         0.0533
     11 O1         -2.3115   -2.0633    1.1054 O.3       1 <0>        -0.3633
     12 C11        -1.1930   -1.1739    1.1160 C.3       1 <0>         0.0557
     13 C12         0.1008   -1.9847    1.2274 C.3       1 <0>        -0.1691
     14 C13        -0.0200   -1.9325    3.7250 C.3       1 <0>        -0.0173
     15 N1          1.1104   -0.9946    3.7051 N.4       1 <0>        -0.5018
     16 C14         1.1132   -0.2048    4.9437 C.3       1 <0>         0.0025
     17 H1          1.1203   -0.8759    5.8026 H         1 <0>         0.1693
     18 C15        -0.1396    0.6723    4.9921 C.3       1 <0>        -0.1844
     19 C16         2.3401    0.6695    4.9792 C.2       1 <0>         0.5021
     20 O2          3.1342    0.6377    4.0629 O.2       1 <0>        -0.5060
     21 N2          2.5551    1.4867    6.0292 N.am      1 <0>        -0.6375
     22 C17         3.7412    2.2281    6.1084 C.ar      1 <0>         0.1157
     23 C18         4.3226    2.7332    4.9531 C.ar      1 <0>        -0.1053
     24 C19         5.4925    3.4647    5.0294 C.ar      1 <0>        -0.1585
     25 C20         6.0878    3.6957    6.2591 C.ar      1 <0>         0.1085
     26 C21         5.5076    3.1908    7.4187 C.ar      1 <0>         0.1217
     27 C22         4.3320    2.4625    7.3425 C.ar      1 <0>        -0.1868
     28 O3          6.0912    3.4170    8.6260 O.3       1 <0>        -0.2978
     29 C23         5.4404    2.8689    9.7741 C.3       1 <0>         0.0237
     30 O4          7.2399    4.4158    6.3326 O.3       1 <0>        -0.3008
     31 C24         7.7801    4.9031    5.1026 C.3       1 <0>         0.0229
     32 O5          0.8025   -4.6179    0.4330 O.3       1 <0>        -0.3079
     33 C25         1.1925   -5.5195   -0.6049 C.3       1 <0>         0.0194
     34 H2          3.7935   -5.0897    5.7093 H         1 <0>         0.0781
     35 H3          5.1530   -4.5700    4.6845 H         1 <0>         0.0757
     36 H4          4.0690   -3.3573    5.4074 H         1 <0>         0.0628
     37 H5          4.4408   -5.8938    2.7774 H         1 <0>         0.1360
     38 H6          2.9922   -6.0108    0.7911 H         1 <0>         0.1400
     39 H7          1.8490   -2.9803    4.5054 H         1 <0>         0.1129
     40 H8         -1.1186   -4.4162    1.5987 H         1 <0>         0.1071
     41 H9         -1.2678   -4.3079    3.3702 H         1 <0>         0.0863
     42 H10        -3.3215   -3.4890    2.2083 H         1 <0>         0.1096
     43 H11        -2.5342   -2.2032    3.1548 H         1 <0>         0.0495
     44 H12        -1.1806   -0.5946    0.1928 H         1 <0>         0.1094
     45 H13        -1.2734   -0.4988    1.9679 H         1 <0>         0.0412
     46 H14         0.9524   -1.3063    1.2800 H         1 <0>         0.0668
     47 H15         0.2020   -2.6308    0.3554 H         1 <0>         0.1212
     48 H16        -0.9559   -1.3739    3.7111 H         1 <0>         0.1438
     49 H17         0.0273   -2.5396    4.6291 H         1 <0>         0.1433
     50 H18         1.9744   -1.5108    3.6335 H         1 <0>         0.4344
     51 H19        -1.0270    0.0399    4.9664 H         1 <0>         0.1002
     52 H20        -0.1375    1.2583    5.9111 H         1 <0>         0.1141
     53 H21        -0.1466    1.3434    4.1332 H         1 <0>         0.0936
     54 H22         1.8887    1.5615    6.7300 H         1 <0>         0.4182
     55 H23         3.8602    2.5539    3.9938 H         1 <0>         0.1417
     56 H24         5.9434    3.8565    4.1296 H         1 <0>         0.1449
     57 H25         3.8778    2.0736    8.2419 H         1 <0>         0.1423
     58 H26         5.3819    1.7849    9.6756 H         1 <0>         0.0556
     59 H27         6.0083    3.1222   10.6692 H         1 <0>         0.1075
     60 H28         4.4345    3.2813    9.8531 H         1 <0>         0.0569
     61 H29         8.0014    4.0627    4.4447 H         1 <0>         0.0579
     62 H30         7.0546    5.5595    4.6220 H         1 <0>         0.0585
     63 H31         8.6961    5.4588    5.3029 H         1 <0>         0.1072
     64 H32         2.1777   -5.2397   -0.9780 H         1 <0>         0.0611
     65 H33         1.2283   -6.5347   -0.2098 H         1 <0>         0.0619
     66 H34         0.4688   -5.4716   -1.4186 H         1 <0>         0.1092
     67 H35         1.0210   -0.3768    2.9124 H         1 <0>         0.4304
@<TRIPOS>BOND
     1    1    2 1
     2    1   34 1
     3    1   35 1
     4    1   36 1
     5    2    7 ar
     6    2    3 ar
     7    3    4 ar
     8    3   37 1
     9    4    5 ar
    10    4   38 1
    11    5    6 ar
    12    5   32 1
    13    6    7 ar
    14    6    8 1
    15    7   39 1
    16    8   13 1
    17    8    9 1
    18    8   14 1
    19    9   10 1
    20    9   40 1
    21    9   41 1
    22   10   11 1
    23   10   42 1
    24   10   43 1
    25   11   12 1
    26   12   13 1
    27   12   44 1
    28   12   45 1
    29   13   46 1
    30   13   47 1
    31   14   15 1
    32   14   48 1
    33   14   49 1
    34   15   16 1
    35   15   50 1
    36   15   67 1
    37   16   17 1
    38   16   18 1
    39   16   19 1
    40   18   51 1
    41   18   52 1
    42   18   53 1
    43   19   20 2
    44   19   21 am
    45   21   22 1
    46   21   54 1
    47   22   27 ar
    48   22   23 ar
    49   23   24 ar
    50   23   55 1
    51   24   25 ar
    52   24   56 1
    53   25   26 ar
    54   25   30 1
    55   26   27 ar
    56   26   28 1
    57   27   57 1
    58   28   29 1
    59   29   58 1
    60   29   59 1
    61   29   60 1
    62   30   31 1
    63   31   61 1
    64   31   62 1
    65   31   63 1
    66   32   33 1
    67   33   64 1
    68   33   65 1
    69   33   66 1
@<TRIPOS>MOLECULE
ZINC64137634
   56    60     0     0     0
SMALL
USER_CHARGES

@<TRIPOS>ATOM
      1 C1          1.3047    2.0445   -0.8609 C.ar      1 <0>        -0.1071
      2 C2          2.4943    2.6972   -0.5966 C.ar      1 <0>        -0.1211
      3 C3          3.6708    1.9778   -0.5002 C.ar      1 <0>        -0.1011
      4 C4          3.6576    0.6057   -0.6678 C.ar      1 <0>        -0.1169
      5 C5          2.4679   -0.0471   -0.9313 C.ar      1 <0>        -0.0998
      6 C6          1.2917    0.6725   -1.0290 C.ar      1 <0>        -0.1197
      7 C7          4.9403   -0.1784   -0.5638 C.3       1 <0>         0.1627
      8 N1          5.1461   -0.5960    0.8253 N.am      1 <0>        -0.7197
      9 C8          6.2366   -1.3146    1.1584 C.2       1 <0>         0.5265
     10 O1          7.0475   -1.6156    0.3083 O.2       1 <0>        -0.5087
     11 C9          6.4482   -1.7442    2.5873 C.3       1 <0>        -0.1224
     12 S1          7.9923   -2.6881    2.7125 S.3       1 <0>        -0.1571
     13 C10         8.0984   -3.1248    4.4700 C.3       1 <0>         0.3692
     14 H1          8.9954   -3.7133    4.6622 H         1 <0>         0.1364
     15 N2          6.8971   -3.8649    4.8901 N.pl3     1 <0>        -0.5832
     16 N3          6.2834   -3.0950    5.8851 N.2       1 <0>        -0.1676
     17 C11         6.9534   -1.9971    6.1166 C.2       1 <0>         0.2571
     18 N4          8.0902   -1.9114    5.3035 N.pl3     1 <0>        -0.6337
     19 C12         9.0770   -0.8288    5.2839 C.3       1 <0>         0.2259
     20 C13        10.2313   -1.1850    6.1849 C.2       1 <0>        -0.0765
     21 C14        11.2961   -1.9317    5.8413 C.2       1 <0>        -0.1611
     22 C15        12.1259   -2.0118    6.9833 C.2       1 <0>        -0.2098
     23 C16        11.5185   -1.3092    7.9563 C.2       1 <0>        -0.0187
     24 O2         10.3743   -0.8058    7.4654 O.3       1 <0>        -0.1884
     25 C17         6.5817   -1.0275    7.0605 C.2       1 <0>         0.1331
     26 C18         5.5281   -1.0984    7.9725 C.ar      1 <0>        -0.1409
     27 C19         4.5586   -2.0900    8.2336 C.ar      1 <0>        -0.0112
     28 C20         3.6310   -1.8860    9.2042 C.ar      1 <0>        -0.1490
     29 C21         3.6087   -0.7113    9.9591 C.ar      1 <0>         0.0471
     30 C22         4.5094    0.2828    9.7621 C.ar      1 <0>        -0.2046
     31 C23         5.5091    0.1416    8.7653 C.ar      1 <0>         0.3149
     32 N5          6.4820    0.9468    8.3856 N.pl3     1 <0>        -0.5964
     33 C24         7.2434    0.3104    7.3063 C.3       1 <0>         0.0730
     34 H2          0.3849    2.6060   -0.9317 H         1 <0>         0.1264
     35 H3          2.5045    3.7691   -0.4657 H         1 <0>         0.1262
     36 H4          4.6002    2.4878   -0.2944 H         1 <0>         0.1233
     37 H5          2.4577   -1.1190   -1.0625 H         1 <0>         0.1245
     38 H6          0.3622    0.1625   -1.2352 H         1 <0>         0.1270
     39 H7          4.8805   -1.0593   -1.2029 H         1 <0>         0.0814
     40 H8          5.7748    0.4460   -0.8829 H         1 <0>         0.0812
     41 H9          4.4976   -0.3553    1.5052 H         1 <0>         0.4015
     42 H10         6.5080   -0.8633    3.2265 H         1 <0>         0.1054
     43 H11         5.6138   -2.3687    2.9064 H         1 <0>         0.1109
     44 H12         6.5907   -4.7180    4.5449 H         1 <0>         0.4684
     45 H13         9.4408   -0.6871    4.2662 H         1 <0>         0.1371
     46 H14         8.6126    0.0926    5.6354 H         1 <0>         0.0963
     47 H15        11.4813   -2.3839    4.8782 H         1 <0>         0.1540
     48 H16        13.0666   -2.5367    7.0597 H         1 <0>         0.1561
     49 H17        11.8900   -1.1701    8.9609 H         1 <0>         0.2094
     50 H18         4.5541   -3.0073    7.6636 H         1 <0>         0.1605
     51 H19         2.8927   -2.6503    9.3967 H         1 <0>         0.1558
     52 H20         2.8525   -0.5912   10.7208 H         1 <0>         0.1608
     53 H21         4.4658    1.1797   10.3621 H         1 <0>         0.1608
     54 H22         8.2803    0.1661    7.6100 H         1 <0>         0.1747
     55 H23         7.1973    0.9230    6.4059 H         1 <0>         0.1718
     56 H24         6.6674    1.8206    8.7638 H         1 <0>         0.4552
@<TRIPOS>BOND
     1    1    6 ar
     2    1    2 ar
     3    1   34 1
     4    2    3 ar
     5    2   35 1
     6    3    4 ar
     7    3   36 1
     8    4    5 ar
     9    4    7 1
    10    5    6 ar
    11    5   37 1
    12    6   38 1
    13    7    8 1
    14    7   39 1
    15    7   40 1
    16    8    9 am
    17    8   41 1
    18    9   10 2
    19    9   11 1
    20   11   12 1
    21   11   42 1
    22   11   43 1
    23   12   13 1
    24   13   14 1
    25   13   18 1
    26   13   15 1
    27   15   16 1
    28   15   44 1
    29   16   17 2
    30   17   18 1
    31   17   25 1
    32   18   19 1
    33   19   20 1
    34   19   45 1
    35   19   46 1
    36   20   24 1
    37   20   21 2
    38   21   22 1
    39   21   47 1
    40   22   23 2
    41   22   48 1
    42   23   24 1
    43   23   49 1
    44   25   33 1
    45   25   26 2
    46   26   31 ar
    47   26   27 ar
    48   27   28 ar
    49   27   50 1
    50   28   29 ar
    51   28   51 1
    52   29   30 ar
    53   29   52 1
    54   30   31 ar
    55   30   53 1
    56   31   32 2
    57   32   33 1
    58   32   56 1
    59   33   54 1
    60   33   55 1
@<TRIPOS>MOLECULE
ZINC14458852
   62    66     0     0     0
SMALL
USER_CHARGES
(3aR,4R,9bS)-N-cyclohexyl-4-(4-hydroxy-3-methoxy-phenyl)-3a,4,5,9b-tetrahydro-3H-cyclopenta[c]quinoline-8-sulfonamide
@<TRIPOS>ATOM
      1 C1          2.6393    3.1437   -4.6140 C.3       1 <0>         0.0231
      2 O1          3.2644    1.8632   -4.5063 O.3       1 <0>        -0.3054
      3 C2          3.1043    1.1946   -3.3329 C.ar      1 <0>         0.1087
      4 C3          2.3578    1.7568   -2.3098 C.ar      1 <0>        -0.1813
      5 C4          2.2004    1.0781   -1.1157 C.ar      1 <0>        -0.0626
      6 C5          2.7777   -0.1662   -0.9430 C.ar      1 <0>        -0.1314
      7 C6          3.5196   -0.7348   -1.9615 C.ar      1 <0>        -0.1020
      8 C7          3.6857   -0.0576   -3.1589 C.ar      1 <0>         0.0797
      9 O2          4.4149   -0.6157   -4.1620 O.3       1 <0>        -0.4858
     10 C8          1.3926    1.6933   -0.0021 C.3       1 <0>         0.2034
     11 H1          1.3236    2.7706   -0.1533 H         1 <0>         0.0839
     12 C9         -0.0127    1.0858    0.0080 C.3       1 <0>        -0.0936
     13 H2          0.0021   -0.0041    0.0020 H         1 <0>         0.0985
     14 C10        -0.7885    1.6897   -1.1994 C.3       1 <0>        -0.0984
     15 C11        -1.3027    3.0167   -0.6452 C.2       1 <0>        -0.1702
     16 C12        -1.3171    3.0011    0.6653 C.2       1 <0>        -0.1553
     17 C13        -0.8298    1.6668    1.1781 C.3       1 <0>        -0.0154
     18 H3         -1.6906    1.0278    1.3748 H         1 <0>         0.0967
     19 C14        -0.0461    1.8403    2.4251 C.ar      1 <0>        -0.1571
     20 C15        -0.7209    2.1320    3.6029 C.ar      1 <0>         0.0268
     21 C16        -0.0300    2.2861    4.7873 C.ar      1 <0>        -0.7210
     22 C17         1.3462    2.1508    4.8150 C.ar      1 <0>         0.0191
     23 C18         2.0285    1.8604    3.6505 C.ar      1 <0>        -0.2016
     24 C19         1.3334    1.7065    2.4575 C.ar      1 <0>         0.2709
     25 N1          2.0390    1.4157    1.2850 N.pl3     1 <0>        -0.7375
     26 S1         -0.9047    2.6576    6.2711 S.o2      1 <0>         2.6945
     27 O3          0.0226    3.2914    7.1414 O.2       1 <0>        -0.9606
     28 O4         -2.1250    3.2719    5.8801 O.2       1 <0>        -0.9637
     29 N2         -1.3063    1.2145    6.9771 N.pl3     1 <0>        -1.1145
     30 C20        -0.2541    0.3221    7.4698 C.3       1 <0>         0.1500
     31 C21         0.0804   -0.7142    6.3951 C.3       1 <0>        -0.1411
     32 C22         1.1793   -1.6461    6.9096 C.3       1 <0>        -0.1178
     33 C23         0.6928   -2.3598    8.1725 C.3       1 <0>        -0.1230
     34 C24         0.3584   -1.3234    9.2472 C.3       1 <0>        -0.1193
     35 C25        -0.7405   -0.3915    8.7327 C.3       1 <0>        -0.1228
     36 H4          1.5626    3.0345   -4.4837 H         1 <0>         0.0570
     37 H5          3.0332    3.8062   -3.8433 H         1 <0>         0.0571
     38 H6          2.8452    3.5670   -5.5970 H         1 <0>         0.1042
     39 H7          1.9024    2.7269   -2.4436 H         1 <0>         0.1356
     40 H8          2.6490   -0.6950   -0.0101 H         1 <0>         0.1299
     41 H9          3.9695   -1.7069   -1.8240 H         1 <0>         0.1391
     42 H10         3.8958   -1.1599   -4.7698 H         1 <0>         0.3893
     43 H11        -0.1202    1.8448   -2.0465 H         1 <0>         0.0770
     44 H12        -1.6231    1.0472   -1.4799 H         1 <0>         0.0827
     45 H13        -1.6013    3.8571   -1.2541 H         1 <0>         0.1279
     46 H14        -1.6320    3.8246    1.2890 H         1 <0>         0.1304
     47 H15        -1.7955    2.2387    3.5920 H         1 <0>         0.1364
     48 H16         1.8847    2.2721    5.7433 H         1 <0>         0.1383
     49 H17         3.1030    1.7526    3.6670 H         1 <0>         0.1310
     50 H18         2.9325    1.0399    1.3223 H         1 <0>         0.4076
     51 H19        -2.2383    0.9600    7.0644 H         1 <0>         0.4177
     52 H20         0.6372    0.9050    7.7023 H         1 <0>         0.0918
     53 H21        -0.8109   -1.2971    6.1626 H         1 <0>         0.0699
     54 H22         0.4269   -0.2058    5.4954 H         1 <0>         0.0705
     55 H23         2.0705   -1.0633    7.1422 H         1 <0>         0.0647
     56 H24         1.4176   -2.3845    6.1440 H         1 <0>         0.0650
     57 H25         1.4757   -3.0237    8.5391 H         1 <0>         0.0639
     58 H26        -0.1984   -2.9427    7.9400 H         1 <0>         0.0629
     59 H27         1.2496   -0.7406    9.4798 H         1 <0>         0.0664
     60 H28         0.0118   -1.8319   10.1470 H         1 <0>         0.0678
     61 H29        -0.9788    0.3468    9.4983 H         1 <0>         0.0721
     62 H30        -1.6318   -0.9744    8.5002 H         1 <0>         0.0698
@<TRIPOS>BOND
     1    1    2 1
     2    1   36 1
     3    1   37 1
     4    1   38 1
     5    2    3 1
     6    3    8 ar
     7    3    4 ar
     8    4    5 ar
     9    4   39 1
    10    5    6 ar
    11    5   10 1
    12    6    7 ar
    13    6   40 1
    14    7    8 ar
    15    7   41 1
    16    8    9 1
    17    9   42 1
    18   10   11 1
    19   10   25 1
    20   10   12 1
    21   12   13 1
    22   12   17 1
    23   12   14 1
    24   14   15 1
    25   14   43 1
    26   14   44 1
    27   15   16 2
    28   15   45 1
    29   16   17 1
    30   16   46 1
    31   17   18 1
    32   17   19 1
    33   19   24 ar
    34   19   20 ar
    35   20   21 ar
    36   20   47 1
    37   21   22 ar
    38   21   26 1
    39   22   23 ar
    40   22   48 1
    41   23   24 ar
    42   23   49 1
    43   24   25 1
    44   25   50 1
    45   26   27 2
    46   26   28 2
    47   26   29 1
    48   29   30 1
    49   29   51 1
    50   30   35 1
    51   30   31 1
    52   30   52 1
    53   31   32 1
    54   31   53 1
    55   31   54 1
    56   32   33 1
    57   32   55 1
    58   32   56 1
    59   33   34 1
    60   33   57 1
    61   33   58 1
    62   34   35 1
    63   34   59 1
    64   34   60 1
    65   35   61 1
    66   35   62 1
@<TRIPOS>MOLECULE
ZINC20693763
   62    66     0     0     0
SMALL
USER_CHARGES
(3aR,4S,9bR)-N-cyclohexyl-4-(2-hydroxy-3-methoxy-phenyl)-3a,4,5,9b-tetrahydro-3H-cyclopenta[c]quinoline-8-sulfonamide
@<TRIPOS>ATOM
      1 C1         -2.1970    7.4579    0.0444 C.3       1 <0>         0.0226
      2 O1         -2.3565    6.0388    0.0968 O.3       1 <0>        -0.3064
      3 C2         -1.4442    5.2897   -0.5785 C.ar      1 <0>         0.0912
      4 C3         -0.4184    5.9070   -1.2760 C.ar      1 <0>        -0.1680
      5 C4          0.5079    5.1440   -1.9622 C.ar      1 <0>        -0.1209
      6 C5          0.4133    3.7648   -1.9550 C.ar      1 <0>        -0.1009
      7 C6         -0.6077    3.1425   -1.2611 C.ar      1 <0>        -0.1654
      8 C7         -1.5425    3.9016   -0.5756 C.ar      1 <0>         0.1380
      9 O2         -2.5507    3.2912    0.1029 O.3       1 <0>        -0.4929
     10 C8         -0.7077    1.6388   -1.2555 C.3       1 <0>         0.2008
     11 H1         -1.7753    1.3744   -1.2707 H         1 <0>         0.0970
     12 C9          0.0155    1.0698   -0.0479 C.3       1 <0>        -0.0925
     13 H2         -0.1966   -0.0070   -0.1227 H         1 <0>         0.1053
     14 C10        -0.3657    1.6082    1.3378 C.3       1 <0>        -0.0949
     15 C11         0.9438    1.4299    2.1086 C.2       1 <0>        -0.1661
     16 C12         1.9710    1.4443    1.2675 C.2       1 <0>        -0.1665
     17 C13         1.4548    1.6629   -0.1078 C.3       1 <0>        -0.0160
     18 H3          1.6398    2.7291   -0.3052 H         1 <0>         0.1060
     19 C14         2.1368    1.0848   -1.2857 C.ar      1 <0>        -0.1640
     20 C15         3.4838    0.7937   -1.2922 C.ar      1 <0>         0.0265
     21 C16         4.0783    0.2675   -2.4241 C.ar      1 <0>        -0.7308
     22 C17         3.3205    0.0324   -3.5572 C.ar      1 <0>         0.0232
     23 C18         1.9701    0.3148   -3.5585 C.ar      1 <0>        -0.2131
     24 C19         1.3611    0.8363   -2.4235 C.ar      1 <0>         0.2731
     25 N1         -0.0177    1.0789   -2.4360 N.pl3     1 <0>        -0.7389
     26 S1          5.8009   -0.1031   -2.4235 S.o2      1 <0>         2.6936
     27 O3          6.2228   -0.0754   -3.7802 O.2       1 <0>        -0.9624
     28 O4          6.3923    0.7168   -1.4249 O.2       1 <0>        -0.9658
     29 N2          5.9648   -1.6685   -1.9088 N.pl3     1 <0>        -1.1218
     30 C20         5.4267   -2.7655   -2.7170 C.3       1 <0>         0.1536
     31 C21         4.0288   -3.1314   -2.2142 C.3       1 <0>        -0.1432
     32 C22         3.4668   -4.2771   -3.0583 C.3       1 <0>        -0.1176
     33 C23         4.3857   -5.4948   -2.9417 C.3       1 <0>        -0.1232
     34 C24         5.7836   -5.1289   -3.4446 C.3       1 <0>        -0.1208
     35 C25         6.3456   -3.9833   -2.6004 C.3       1 <0>        -0.1190
     36 H4         -2.9958    7.9384    0.6283 H         1 <0>         0.1029
     37 H5         -2.2536    7.7949   -1.0012 H         1 <0>         0.0553
     38 H6         -1.2188    7.7327    0.4658 H         1 <0>         0.0557
     39 H7         -0.3423    6.9843   -1.2832 H         1 <0>         0.1344
     40 H8          1.3069    5.6265   -2.5055 H         1 <0>         0.1261
     41 H9          1.1388    3.1721   -2.4923 H         1 <0>         0.1258
     42 H10        -2.6272    2.1939    0.1044 H         1 <0>         0.4202
     43 H11        -0.6778    2.6593    1.2496 H         1 <0>         0.0901
     44 H12        -1.1949    1.0126    1.7472 H         1 <0>         0.0756
     45 H13         1.1179    1.3020    3.1872 H         1 <0>         0.1327
     46 H14         2.9943    1.3058    1.6466 H         1 <0>         0.1350
     47 H15         4.0776    0.9772   -0.4090 H         1 <0>         0.1346
     48 H16         3.7870   -0.3733   -4.4427 H         1 <0>         0.1352
     49 H17         1.3833    0.1292   -4.4460 H         1 <0>         0.1289
     50 H18        -0.5883    0.8447   -3.3468 H         1 <0>         0.4284
     51 H19         6.3289   -1.8637   -0.8893 H         1 <0>         0.4381
     52 H20         5.3836   -2.4108   -3.7574 H         1 <0>         0.0902
     53 H21         4.0884   -3.4463   -1.1619 H         1 <0>         0.0699
     54 H22         3.3681   -2.2559   -2.2981 H         1 <0>         0.0704
     55 H23         2.4618   -4.5402   -2.6967 H         1 <0>         0.0643
     56 H24         3.4071   -3.9622   -4.1106 H         1 <0>         0.0643
     57 H25         4.4454   -5.8097   -1.8894 H         1 <0>         0.0629
     58 H26         3.9817   -6.3185   -3.5485 H         1 <0>         0.0636
     59 H27         6.4442   -6.0044   -3.3608 H         1 <0>         0.0675
     60 H28         5.7240   -4.8140   -4.4969 H         1 <0>         0.0659
     61 H29         7.3506   -3.7202   -2.9619 H         1 <0>         0.0723
     62 H30         6.4053   -4.2982   -1.5481 H         1 <0>         0.0697
@<TRIPOS>BOND
     1    1    2 1
     2    1   36 1
     3    1   37 1
     4    1   38 1
     5    2    3 1
     6    3    8 ar
     7    3    4 ar
     8    4    5 ar
     9    4   39 1
    10    5    6 ar
    11    5   40 1
    12    6    7 ar
    13    6   41 1
    14    7    8 ar
    15    7   10 1
    16    8    9 1
    17    9   42 1
    18   10   11 1
    19   10   25 1
    20   10   12 1
    21   12   13 1
    22   12   17 1
    23   12   14 1
    24   14   15 1
    25   14   43 1
    26   14   44 1
    27   15   16 2
    28   15   45 1
    29   16   17 1
    30   16   46 1
    31   17   18 1
    32   17   19 1
    33   19   24 ar
    34   19   20 ar
    35   20   21 ar
    36   20   47 1
    37   21   22 ar
    38   21   26 1
    39   22   23 ar
    40   22   48 1
    41   23   24 ar
    42   23   49 1
    43   24   25 1
    44   25   50 1
    45   26   27 2
    46   26   28 2
    47   26   29 1
    48   29   30 1
    49   29   51 1
    50   30   35 1
    51   30   31 1
    52   30   52 1
    53   31   32 1
    54   31   53 1
    55   31   54 1
    56   32   33 1
    57   32   55 1
    58   32   56 1
    59   33   34 1
    60   33   57 1
    61   33   58 1
    62   34   35 1
    63   34   59 1
    64   34   60 1
    65   35   61 1
    66   35   62 1
@<TRIPOS>MOLECULE
ZINC36007556
   54    57     0     0     0
SMALL
USER_CHARGES

@<TRIPOS>ATOM
      1 C1          2.1643    1.4566   -1.5467 C.3       1 <0>        -0.1178
      2 C2          1.0411    0.7717   -0.7655 C.3       1 <0>        -0.0724
      3 C3         -0.3308    1.5126   -0.7535 C.3       1 <0>        -0.1165
      4 C4         -1.0811    0.9259    0.4640 C.3       1 <0>        -0.1221
      5 C5         -0.0919   -0.1143    1.0729 C.3       1 <0>        -0.0943
      6 H1         -0.2741   -0.3945    2.1104 H         1 <0>         0.0999
      7 C6          1.2822    0.5826    0.7738 C.3       1 <0>        -0.0628
      8 C7          1.4172    1.9214    1.5021 C.3       1 <0>        -0.1376
      9 C8          2.4682   -0.3408    1.0597 C.3       1 <0>        -0.1416
     10 C9         -0.0744   -1.2853    0.0436 C.3       1 <0>        -0.1251
     11 C10         0.7120   -0.6928   -1.1877 C.3       1 <0>         0.1489
     12 H2          1.6299   -1.2476   -1.3822 H         1 <0>         0.0976
     13 N1         -0.1517   -0.7014   -2.3709 N.am      1 <0>        -0.7126
     14 C11         0.3935   -0.6892   -3.6034 C.2       1 <0>         0.5360
     15 O1          1.5992   -0.6711   -3.7330 O.2       1 <0>        -0.5171
     16 C12        -0.4951   -0.6980   -4.8206 C.3       1 <0>        -0.1603
     17 S1          0.5295   -0.6778   -6.3174 S.3       1 <0>         0.1153
     18 C13        -0.6403   -0.6904   -7.6349 C.2       1 <0>         0.1820
     19 N2         -1.9489   -0.7043   -7.5154 N.2       1 <0>        -0.2913
     20 N3         -2.4982   -0.7103   -8.6771 N.2       1 <0>        -0.2284
     21 C14        -1.5745   -0.7006   -9.6097 C.2       1 <0>         0.1786
     22 N4         -0.3561   -0.6816   -8.9710 N.pl3     1 <0>        -0.2982
     23 N5          0.8802   -0.6615   -9.5517 N.3       1 <0>        -0.5810
     24 C15        -1.8007   -0.7033  -11.0705 C.ar      1 <0>        -0.0116
     25 C16        -1.0883   -1.5820  -11.8884 C.ar      1 <0>        -0.0822
     26 C17        -1.3039   -1.5803  -13.2506 C.ar      1 <0>        -0.0998
     27 C18        -2.2252   -0.7092  -13.8082 C.ar      1 <0>        -0.0085
     28 C19        -2.9352    0.1650  -13.0033 C.ar      1 <0>        -0.0990
     29 C20        -2.7323    0.1693  -11.6375 C.ar      1 <0>         0.0127
     30 Cl1        -3.6286    1.2609  -10.6281 Cl        1 <0>        -0.0228
     31 Cl2        -2.4900   -0.7132  -15.5239 Cl        1 <0>        -0.0418
     32 H3          3.0794    0.8714   -1.4557 H         1 <0>         0.0599
     33 H4          1.8834    1.5306   -2.5973 H         1 <0>         0.0599
     34 H5          2.3303    2.4557   -1.1437 H         1 <0>         0.0552
     35 H6         -0.1823    2.5851   -0.6276 H         1 <0>         0.0650
     36 H7         -0.8804    1.3095   -1.6726 H         1 <0>         0.0641
     37 H8         -1.3016    1.7100    1.1884 H         1 <0>         0.0660
     38 H9         -1.9997    0.4343    0.1435 H         1 <0>         0.0629
     39 H10         0.5036    2.5008    1.3696 H         1 <0>         0.0605
     40 H11         1.5829    1.7420    2.5644 H         1 <0>         0.0549
     41 H12         2.2614    2.4751    1.0911 H         1 <0>         0.0563
     42 H13         3.3725    0.0835    0.6234 H         1 <0>         0.0581
     43 H14         2.5978   -0.4427    2.1371 H         1 <0>         0.0561
     44 H15         2.2791   -1.3211    0.6221 H         1 <0>         0.0589
     45 H16         0.4660   -2.1403    0.4499 H         1 <0>         0.0757
     46 H17        -1.0916   -1.5704   -0.2251 H         1 <0>         0.0749
     47 H18        -1.1161   -0.7159   -2.2673 H         1 <0>         0.4028
     48 H19        -1.1112   -1.5971   -4.8141 H         1 <0>         0.1252
     49 H20        -1.1373    0.1826   -4.8080 H         1 <0>         0.1254
     50 H21         1.1848   -1.5944   -9.7862 H         1 <0>         0.3684
     51 H22         0.8882   -0.0635  -10.3644 H         1 <0>         0.3788
     52 H23        -0.3694   -2.2616  -11.4554 H         1 <0>         0.1389
     53 H24        -0.7529   -2.2596  -13.8841 H         1 <0>         0.1509
     54 H25        -3.6520    0.8421  -13.4439 H         1 <0>         0.1554
@<TRIPOS>BOND
     1    1    2 1
     2    1   32 1
     3    1   33 1
     4    1   34 1
     5    2    7 1
     6    2   11 1
     7    2    3 1
     8    3    4 1
     9    3   35 1
    10    3   36 1
    11    4    5 1
    12    4   37 1
    13    4   38 1
    14    5    6 1
    15    5    7 1
    16    5   10 1
    17    7    8 1
    18    7    9 1
    19    8   39 1
    20    8   40 1
    21    8   41 1
    22    9   42 1
    23    9   43 1
    24    9   44 1
    25   10   11 1
    26   10   45 1
    27   10   46 1
    28   11   12 1
    29   11   13 1
    30   13   14 am
    31   13   47 1
    32   14   15 2
    33   14   16 1
    34   16   17 1
    35   16   48 1
    36   16   49 1
    37   17   18 1
    38   18   22 1
    39   18   19 2
    40   19   20 1
    41   20   21 2
    42   21   22 1
    43   21   24 1
    44   22   23 1
    45   23   50 1
    46   23   51 1
    47   24   29 ar
    48   24   25 ar
    49   25   26 ar
    50   25   52 1
    51   26   27 ar
    52   26   53 1
    53   27   28 ar
    54   27   31 1
    55   28   29 ar
    56   28   54 1
    57   29   30 1
@<TRIPOS>MOLECULE
ZINC00622857
   58    62     0     0     0
SMALL
USER_CHARGES

@<TRIPOS>ATOM
      1 C1         -0.0184    1.5028    0.0103 C.3       1 <0>        -0.1189
      2 C2          0.0021   -0.0041    0.0020 C.ar      1 <0>        -0.0691
      3 C3          0.0057   -0.6865   -1.2011 C.ar      1 <0>        -0.1222
      4 C4          0.0249   -2.0666   -1.2145 C.ar      1 <0>        -0.0813
      5 C5          0.0405   -2.7722   -0.0132 C.ar      1 <0>        -0.0276
      6 C6          0.0368   -2.0797    1.1957 C.ar      1 <0>        -0.0859
      7 C7          0.0229   -0.6995    1.1975 C.ar      1 <0>        -0.1186
      8 C8          0.0607   -4.2562   -0.0214 C.2       1 <0>         0.1654
      9 C9          0.7203   -5.0750    0.9001 C.2       1 <0>        -0.2487
     10 C10         0.4944   -6.3742    0.5484 C.2       1 <0>         0.2766
     11 N1         -0.2794   -6.3716   -0.5569 N.pl3     1 <0>        -0.4452
     12 H1         -0.5988   -7.1551   -1.0313 H         1 <0>         0.4486
     13 N2         -0.5456   -5.0360   -0.8963 N.2       1 <0>        -0.2500
     14 O1          0.9987   -7.4207    1.2488 O.3       1 <0>        -0.2294
     15 C11         1.5100   -7.1664    2.4704 C.2       1 <0>         0.4398
     16 C12         1.7879   -5.9245    2.9257 C.2       1 <0>        -0.2559
     17 C13         1.5532   -4.6877    2.0946 C.3       1 <0>         0.1191
     18 H2          1.0226   -3.9422    2.6868 H         1 <0>         0.0986
     19 C14         2.8735   -4.1263    1.6335 C.ar      1 <0>        -0.0316
     20 C15         3.7248   -4.9024    0.8684 C.ar      1 <0>        -0.1365
     21 C16         4.9367   -4.3903    0.4438 C.ar      1 <0>        -0.0787
     22 C17         5.3004   -3.1014    0.7835 C.ar      1 <0>        -0.2096
     23 C18         4.4483   -2.3209    1.5508 C.ar      1 <0>         0.1344
     24 C19         3.2298   -2.8351    1.9706 C.ar      1 <0>        -0.1356
     25 O2          4.8038   -1.0528    1.8862 O.3       1 <0>        -0.3093
     26 C20         6.0699   -0.5877    1.4144 C.3       1 <0>         0.1056
     27 C21         6.2906    0.8281    1.8811 C.ar      1 <0>        -0.0944
     28 C22         5.3312    1.4599    2.6504 C.ar      1 <0>        -0.0924
     29 C23         5.5337    2.7584    3.0784 C.ar      1 <0>        -0.1252
     30 C24         6.6959    3.4253    2.7377 C.ar      1 <0>        -0.1140
     31 C25         7.6554    2.7934    1.9695 C.ar      1 <0>        -0.1198
     32 C26         7.4548    1.4930    1.5449 C.ar      1 <0>        -0.0787
     33 C27         8.5033    0.8021    0.7117 C.3       1 <0>        -0.1214
     34 C28         2.3246   -5.7775    4.2451 C.1       1 <0>         0.2696
     35 N3          2.7504   -5.6608    5.2918 N.1       1 <0>        -0.4346
     36 N4          1.7626   -8.2306    3.2999 N.pl3     1 <0>        -0.8303
     37 H3          1.0042    1.8801    0.0026 H         1 <0>         0.0730
     38 H4         -0.5455    1.8639   -0.8728 H         1 <0>         0.0671
     39 H5         -0.5286    1.8543    0.9071 H         1 <0>         0.0679
     40 H6         -0.0068   -0.1386   -2.1317 H         1 <0>         0.1251
     41 H7          0.0274   -2.5985   -2.1544 H         1 <0>         0.1264
     42 H8          0.0485   -2.6218    2.1297 H         1 <0>         0.1274
     43 H9          0.0244   -0.1616    2.1340 H         1 <0>         0.1268
     44 H10         3.4426   -5.9104    0.6024 H         1 <0>         0.1139
     45 H11         5.5998   -4.9984   -0.1536 H         1 <0>         0.1227
     46 H12         6.2476   -2.7020    0.4522 H         1 <0>         0.1247
     47 H13         2.5625   -2.2278    2.5641 H         1 <0>         0.1293
     48 H14         6.8609   -1.2270    1.8065 H         1 <0>         0.0746
     49 H15         6.0850   -0.6177    0.3249 H         1 <0>         0.0751
     50 H16         4.4234    0.9390    2.9165 H         1 <0>         0.1322
     51 H17         4.7839    3.2522    3.6787 H         1 <0>         0.1235
     52 H18         6.8537    4.4402    3.0716 H         1 <0>         0.1230
     53 H19         8.5631    3.3145    1.7031 H         1 <0>         0.1243
     54 H20         8.3082    0.9873   -0.3446 H         1 <0>         0.0739
     55 H21         9.4882    1.1896    0.9726 H         1 <0>         0.0707
     56 H22         8.4721   -0.2702    0.9044 H         1 <0>         0.0655
     57 H23         1.5733   -9.1339    3.0013 H         1 <0>         0.4117
     58 H24         2.1304   -8.0793    4.1846 H         1 <0>         0.4284
@<TRIPOS>BOND
     1    1    2 1
     2    1   37 1
     3    1   38 1
     4    1   39 1
     5    2    7 ar
     6    2    3 ar
     7    3    4 ar
     8    3   40 1
     9    4    5 ar
    10    4   41 1
    11    5    6 ar
    12    5    8 1
    13    6    7 ar
    14    6   42 1
    15    7   43 1
    16    8   13 2
    17    8    9 1
    18    9   17 1
    19    9   10 2
    20   10   11 1
    21   10   14 1
    22   11   12 1
    23   11   13 1
    24   14   15 1
    25   15   16 2
    26   15   36 1
    27   16   17 1
    28   16   34 1
    29   17   18 1
    30   17   19 1
    31   19   24 ar
    32   19   20 ar
    33   20   21 ar
    34   20   44 1
    35   21   22 ar
    36   21   45 1
    37   22   23 ar
    38   22   46 1
    39   23   24 ar
    40   23   25 1
    41   24   47 1
    42   25   26 1
    43   26   27 1
    44   26   48 1
    45   26   49 1
    46   27   32 ar
    47   27   28 ar
    48   28   29 ar
    49   28   50 1
    50   29   30 ar
    51   29   51 1
    52   30   31 ar
    53   30   52 1
    54   31   32 ar
    55   31   53 1
    56   32   33 1
    57   33   54 1
    58   33   55 1
    59   33   56 1
    60   34   35 3
    61   36   57 1
    62   36   58 1
@<TRIPOS>MOLECULE
ZINC67584741
   55    58     0     0     0
SMALL
USER_CHARGES

@<TRIPOS>ATOM
      1 C1         -2.6847    0.7407   -1.4516 C.3       1 <0>        -0.1541
      2 C2         -2.1939   -0.6879   -1.2081 C.3       1 <0>        -0.1111
      3 C3         -1.0870   -1.0244   -2.2093 C.3       1 <0>        -0.1401
      4 C4         -0.6036   -2.4315   -1.9695 C.2       1 <0>         0.5102
      5 O1         -1.0960   -3.0995   -1.0850 O.2       1 <0>        -0.5114
      6 N1          0.3758   -2.9478   -2.7381 N.am      1 <0>        -0.6701
      7 C5          0.9179   -4.2010   -2.4323 C.ar      1 <0>         0.1665
      8 C6          0.7750   -4.7275   -1.1545 C.ar      1 <0>        -0.1515
      9 C7          1.3099   -5.9647   -0.8519 C.ar      1 <0>        -0.0826
     10 C8          1.9886   -6.6823   -1.8183 C.ar      1 <0>        -0.1411
     11 C9          2.1349   -6.1615   -3.0975 C.ar      1 <0>         0.1833
     12 C10         1.5937   -4.9215   -3.4063 C.ar      1 <0>        -0.1539
     13 C11         1.7448   -4.3564   -4.7951 C.3       1 <0>        -0.1128
     14 N2          2.8227   -6.8887   -4.0755 N.am      1 <0>        -0.6814
     15 C12         2.8140   -8.2361   -4.0440 C.2       1 <0>         0.7117
     16 O2          2.2895   -8.8191   -3.1148 O.2       1 <0>        -0.5612
     17 N3          3.3867   -8.9372   -5.0425 N.am      1 <0>        -0.6257
     18 C13         4.1335   -8.2574   -6.1116 C.3       1 <0>         0.1173
     19 C14         5.6045   -8.6822   -6.0429 C.3       1 <0>        -0.0748
     20 C15         5.6764  -10.1811   -5.8715 C.2       1 <0>         0.0769
     21 C16         4.6472  -10.9450   -5.4459 C.2       1 <0>        -0.1823
     22 C17         5.1145  -12.3144   -5.4115 C.ar      1 <0>        -0.0947
     23 C18         4.5006  -13.5192   -5.0553 C.ar      1 <0>        -0.0664
     24 C19         5.2650  -14.6561   -5.1461 C.ar      1 <0>        -0.1471
     25 C20         6.5835  -14.6249   -5.5697 C.ar      1 <0>        -0.0978
     26 C21         7.2160  -13.4473   -5.9286 C.ar      1 <0>        -0.1319
     27 C22         6.4649  -12.2766   -5.8454 C.ar      1 <0>         0.1001
     28 N4          6.7687  -10.9735   -6.1150 N.pl3     1 <0>        -0.5844
     29 H1          7.6287  -10.6556   -6.4316 H         1 <0>         0.4154
     30 C23         3.2871  -10.4068   -5.0898 C.3       1 <0>         0.2074
     31 H2         -1.8554    1.4364   -1.3238 H         1 <0>         0.0552
     32 H3         -3.0749    0.8229   -2.4660 H         1 <0>         0.0551
     33 H4         -3.4733    0.9805   -0.7383 H         1 <0>         0.0598
     34 H5         -1.8036   -0.7701   -0.1937 H         1 <0>         0.0711
     35 H6         -3.0232   -1.3837   -1.3359 H         1 <0>         0.0710
     36 H7         -1.4773   -0.9422   -3.2237 H         1 <0>         0.0964
     37 H8         -0.2577   -0.3287   -2.0816 H         1 <0>         0.0980
     38 H9          0.7050   -2.4505   -3.5031 H         1 <0>         0.4102
     39 H10         0.2454   -4.1689   -0.3970 H         1 <0>         0.1521
     40 H11         1.1978   -6.3717    0.1421 H         1 <0>         0.1288
     41 H12         2.4060   -7.6491   -1.5785 H         1 <0>         0.1489
     42 H13         2.6623   -3.7706   -4.8512 H         1 <0>         0.0704
     43 H14         1.7900   -5.1723   -5.5165 H         1 <0>         0.0669
     44 H15         0.8914   -3.7175   -5.0222 H         1 <0>         0.0669
     45 H16         3.3057   -6.4231   -4.7760 H         1 <0>         0.4038
     46 H17         3.7184   -8.5361   -7.0802 H         1 <0>         0.0858
     47 H18         4.0591   -7.1781   -5.9787 H         1 <0>         0.0846
     48 H19         6.1103   -8.3959   -6.9650 H         1 <0>         0.0923
     49 H20         6.0857   -8.1947   -5.1949 H         1 <0>         0.0869
     50 H21         3.4733  -13.5537   -4.7240 H         1 <0>         0.1311
     51 H22         4.8240  -15.6051   -4.8790 H         1 <0>         0.1199
     52 H23         7.1367  -15.5510   -5.6220 H         1 <0>         0.1220
     53 H24         8.2447  -13.4361   -6.2573 H         1 <0>         0.1276
     54 H25         2.9815  -10.7889   -4.1158 H         1 <0>         0.1038
     55 H26         2.5638  -10.7047   -5.8490 H         1 <0>         0.0788
@<TRIPOS>BOND
     1    1    2 1
     2    1   31 1
     3    1   32 1
     4    1   33 1
     5    2    3 1
     6    2   34 1
     7    2   35 1
     8    3    4 1
     9    3   36 1
    10    3   37 1
    11    4    5 2
    12    4    6 am
    13    6    7 1
    14    6   38 1
    15    7   12 ar
    16    7    8 ar
    17    8    9 ar
    18    8   39 1
    19    9   10 ar
    20    9   40 1
    21   10   11 ar
    22   10   41 1
    23   11   12 ar
    24   11   14 1
    25   12   13 1
    26   13   42 1
    27   13   43 1
    28   13   44 1
    29   14   15 am
    30   14   45 1
    31   15   16 2
    32   15   17 am
    33   17   30 1
    34   17   18 1
    35   18   19 1
    36   18   46 1
    37   18   47 1
    38   19   20 1
    39   19   48 1
    40   19   49 1
    41   20   28 1
    42   20   21 2
    43   21   22 1
    44   21   30 1
    45   22   27 ar
    46   22   23 ar
    47   23   24 ar
    48   23   50 1
    49   24   25 ar
    50   24   51 1
    51   25   26 ar
    52   25   52 1
    53   26   27 ar
    54   26   53 1
    55   27   28 1
    56   28   29 1
    57   30   54 1
    58   30   55 1
@<TRIPOS>MOLECULE
ZINC12602994
   67    71     0     0     0
SMALL
USER_CHARGES
methyl (2S,4S,6S,12bS)-2-(2-acetamidoethylamino)-4-(3-chlorophenyl)-1,2,3,4,6,7,12,12b-octahydroquinolizino[1,2-b]indole-6-carboxylate
@<TRIPOS>ATOM
      1 C1          5.8023   10.0143   -5.4245 C.3       1 <0>        -0.1754
      2 C2          5.1656    8.7039   -5.0388 C.2       1 <0>         0.5187
      3 O1          4.8936    7.8873   -5.8932 O.2       1 <0>        -0.5352
      4 N1          4.8985    8.4396   -3.7445 N.am      1 <0>        -0.7441
      5 C3          4.2796    7.1658   -3.3697 C.3       1 <0>         0.0859
      6 C4          4.0858    7.1198   -1.8527 C.3       1 <0>        -0.0186
      7 N2          3.4652    5.8425   -1.4768 N.4       1 <0>        -0.5673
      8 C5          3.2635    5.7627   -0.0239 C.3       1 <0>         0.0383
      9 H1          4.1084    6.2832    0.4506 H         1 <0>         0.1446
     10 C6          1.9395    6.4363    0.3457 C.3       1 <0>        -0.1247
     11 C7          0.7817    5.6818   -0.3136 C.3       1 <0>         0.1074
     12 H2         -0.1850    6.1205   -0.0255 H         1 <0>         0.1425
     13 N3          0.7870    4.2839    0.1308 N.3       1 <0>        -0.5091
     14 C8         -0.3977    3.5528   -0.3318 C.3       1 <0>         0.0858
     15 H3         -0.2582    3.3417   -1.4023 H         1 <0>         0.1053
     16 C9         -0.5469    2.2540    0.4702 C.3       1 <0>        -0.0387
     17 C10         0.7920    1.5610    0.5011 C.2       1 <0>        -0.1339
     18 C11         1.1088    0.1965    0.8596 C.ar      1 <0>        -0.1048
     19 C12         0.3249   -0.8828    1.2796 C.ar      1 <0>        -0.0637
     20 C13         0.9788   -2.0615    1.5402 C.ar      1 <0>        -0.1433
     21 C14         2.3509   -2.1894    1.3978 C.ar      1 <0>        -0.0880
     22 C15         3.1510   -1.1389    0.9832 C.ar      1 <0>        -0.1332
     23 C16         2.5147    0.0703    0.7109 C.ar      1 <0>         0.1035
     24 N4          2.9901    1.2799    0.2912 N.pl3     1 <0>        -0.5892
     25 H4          4.0664    1.4144    0.1081 H         1 <0>         0.4397
     26 C17         1.9555    2.1665    0.1680 C.2       1 <0>         0.0581
     27 C18         2.0316    3.6092   -0.2662 C.3       1 <0>         0.1204
     28 H5          2.1256    3.6705   -1.3605 H         1 <0>         0.0759
     29 C19         3.2231    4.2930    0.4065 C.3       1 <0>        -0.1307
     30 C20        -1.6233    4.4081   -0.1380 C.2       1 <0>         0.4643
     31 O2         -2.5113    4.3857   -0.9571 O.2       1 <0>        -0.4840
     32 O3         -1.7284    5.1947    0.9446 O.3       1 <0>        -0.3431
     33 C21        -2.9364    5.9911    1.0659 C.3       1 <0>         0.0234
     34 C22         0.9414    5.7249   -1.8115 C.ar      1 <0>        -0.1630
     35 C23         1.0477    6.9411   -2.4606 C.ar      1 <0>        -0.1236
     36 C24         1.1942    6.9815   -3.8344 C.ar      1 <0>        -0.0922
     37 C25         1.2345    5.8057   -4.5603 C.ar      1 <0>        -0.0849
     38 C26         1.1282    4.5886   -3.9115 C.ar      1 <0>        -0.0274
     39 C27         0.9873    4.5487   -2.5355 C.ar      1 <0>        -0.1579
     40 Cl1         1.1783    3.1117   -4.8224 Cl        1 <0>        -0.0196
     41 H6          5.9729   10.6189   -4.5215 H         1 <0>         0.0806
     42 H7          5.1354   10.5584   -6.1095 H         1 <0>         0.1028
     43 H8          6.7633    9.8220   -5.9240 H         1 <0>         0.1030
     44 H9          5.1452    9.1803   -2.9696 H         1 <0>         0.4307
     45 H10         3.3030    7.0723   -3.8671 H         1 <0>         0.0865
     46 H11         4.9308    6.3359   -3.6815 H         1 <0>         0.0842
     47 H12         5.0625    7.2133   -1.3553 H         1 <0>         0.1371
     48 H13         3.4346    7.9497   -1.5409 H         1 <0>         0.1321
     49 H14         2.4885    5.7490   -1.9742 H         1 <0>         0.4236
     50 H15         1.8126    6.4206    1.4382 H         1 <0>         0.1364
     51 H16         1.9469    7.4780   -0.0076 H         1 <0>         0.0995
     52 H17        -0.8732    2.4905    1.4937 H         1 <0>         0.1002
     53 H18        -1.2950    1.6084   -0.0132 H         1 <0>         0.0959
     54 H19        -0.7453   -0.7932    1.3932 H         1 <0>         0.1310
     55 H20         0.4051   -2.9165    1.8662 H         1 <0>         0.1230
     56 H21         2.8119   -3.1409    1.6182 H         1 <0>         0.1256
     57 H22         4.2198   -1.2512    0.8760 H         1 <0>         0.1301
     58 H23         4.1561    3.7961    0.1022 H         1 <0>         0.0967
     59 H24         3.1159    4.2339    1.4997 H         1 <0>         0.1336
     60 H25        -2.8930    6.5845    1.9911 H         1 <0>         0.1118
     61 H26        -3.8122    5.3263    1.0974 H         1 <0>         0.0714
     62 H27        -3.0191    6.6658    0.2011 H         1 <0>         0.0657
     63 H28         1.0159    7.8600   -1.8939 H         1 <0>         0.1544
     64 H29         1.2775    7.9317   -4.3408 H         1 <0>         0.1563
     65 H30         1.3493    5.8373   -5.6337 H         1 <0>         0.1581
     66 H31         0.9086    3.5987   -2.0279 H         1 <0>         0.1765
     67 H32         4.1164    5.0126   -1.7886 H         1 <0>         0.4356
@<TRIPOS>BOND
     1    1    2 1
     2    1   41 1
     3    1   42 1
     4    1   43 1
     5    2    3 2
     6    2    4 am
     7    4    5 1
     8    4   44 1
     9    5    6 1
    10    5   45 1
    11    5   46 1
    12    6    7 1
    13    6   47 1
    14    6   48 1
    15    7    8 1
    16    7   49 1
    17    7   67 1
    18    8    9 1
    19    8   29 1
    20    8   10 1
    21   10   11 1
    22   10   50 1
    23   10   51 1
    24   11   12 1
    25   11   13 1
    26   11   34 1
    27   13   27 1
    28   13   14 1
    29   14   15 1
    30   14   16 1
    31   14   30 1
    32   16   17 1
    33   16   52 1
    34   16   53 1
    35   17   26 2
    36   17   18 1
    37   18   23 ar
    38   18   19 ar
    39   19   20 ar
    40   19   54 1
    41   20   21 ar
    42   20   55 1
    43   21   22 ar
    44   21   56 1
    45   22   23 ar
    46   22   57 1
    47   23   24 1
    48   24   25 1
    49   24   26 1
    50   26   27 1
    51   27   28 1
    52   27   29 1
    53   29   58 1
    54   29   59 1
    55   30   31 2
    56   30   32 1
    57   32   33 1
    58   33   60 1
    59   33   61 1
    60   33   62 1
    61   34   39 ar
    62   34   35 ar
    63   35   36 ar
    64   35   63 1
    65   36   37 ar
    66   36   64 1
    67   37   38 ar
    68   37   65 1
    69   38   39 ar
    70   38   40 1
    71   39   66 1
@<TRIPOS>MOLECULE
ZINC13551865
   60    63     0     0     0
SMALL
USER_CHARGES

@<TRIPOS>ATOM
      1 C1          0.0227    1.7180   -0.6258 C.3       1 <0>        -0.1140
      2 S1         -0.0682   -0.0786   -0.8592 S.3       1 <0>        -0.2781
      3 C2         -1.7396   -0.5097   -0.3013 C.3       1 <0>        -0.0769
      4 C3         -1.9526   -2.0178   -0.4464 C.3       1 <0>        -0.1065
      5 C4         -3.3623   -2.3813    0.0242 C.3       1 <0>         0.1325
      6 H1         -3.5177   -2.0011    1.0338 H         1 <0>         0.1164
      7 C5         -3.5219   -3.8799    0.0217 C.2       1 <0>         0.5213
      8 O1         -4.0333   -4.4337   -0.9284 O.2       1 <0>        -0.5144
      9 N1         -3.0963   -4.6046    1.0753 N.am      1 <0>        -0.6136
     10 C6         -2.5751   -3.9416    2.2784 C.3       1 <0>         0.0987
     11 C7         -1.1880   -4.5111    2.5929 C.3       1 <0>        -0.1666
     12 C8         -1.2782   -6.0337    2.7011 C.3       1 <0>         0.1869
     13 C9         -1.7523   -6.6199    1.3709 C.3       1 <0>        -0.1242
     14 C10        -3.1504   -6.0726    1.0449 C.3       1 <0>         0.1103
     15 C11         0.0712   -6.5987    3.0551 C.2       1 <0>         0.0608
     16 C12         0.4020   -7.0301    4.2940 C.2       1 <0>         0.0457
     17 N2          1.6610   -7.4661    4.2569 N.pl3     1 <0>        -0.4648
     18 C13         2.1286   -7.3221    3.0434 C.cat     1 <0>         0.2978
     19 N3          1.1617   -6.7818    2.2649 N.pl3     1 <0>        -0.4950
     20 H2          1.2337   -6.5662    1.3219 H         1 <0>         0.4648
     21 C14        -0.5527   -6.9860    5.4619 C.3       1 <0>        -0.0548
     22 C15        -1.7070   -6.0439    5.0931 C.3       1 <0>         0.0478
     23 N4         -2.2287   -6.3953    3.7652 N.3       1 <0>        -0.6736
     24 N5         -4.3482   -1.7838   -0.8798 N.am      1 <0>        -0.7128
     25 C16        -4.7526   -0.5121   -0.6903 C.2       1 <0>         0.5682
     26 O2         -4.2993    0.1389    0.2307 O.2       1 <0>        -0.5266
     27 C17        -5.7472    0.0907   -1.6024 C.ar      1 <0>        -0.1298
     28 C18        -6.2739   -0.6563   -2.6576 C.ar      1 <0>        -0.0773
     29 C19        -7.2016   -0.0882   -3.5052 C.ar      1 <0>        -0.0968
     30 C20        -7.6108    1.2204   -3.3114 C.ar      1 <0>        -0.0626
     31 C21        -7.0920    1.9665   -2.2665 C.ar      1 <0>        -0.0977
     32 C22        -6.1680    1.4077   -1.4086 C.ar      1 <0>        -0.0498
     33 Br1        -8.8828    1.9920   -4.4786 Br        1 <0>        -0.0313
     34 H3          1.0039    2.0757   -0.9378 H         1 <0>         0.1042
     35 H4         -0.7481    2.2018   -1.2258 H         1 <0>         0.0791
     36 H5         -0.1332    1.9560    0.4264 H         1 <0>         0.0783
     37 H6         -1.8584   -0.2248    0.7441 H         1 <0>         0.0888
     38 H7         -2.4733    0.0209   -0.9081 H         1 <0>         0.0895
     39 H8         -1.8338   -2.3026   -1.4918 H         1 <0>         0.0870
     40 H9         -1.2189   -2.5484    0.1604 H         1 <0>         0.0821
     41 H10        -2.4980   -2.8690    2.1002 H         1 <0>         0.1045
     42 H11        -3.2454   -4.1276    3.1176 H         1 <0>         0.0804
     43 H12        -0.4955   -4.2435    1.7947 H         1 <0>         0.0851
     44 H13        -0.8315   -4.0998    3.5373 H         1 <0>         0.0929
     45 H14        -1.0558   -6.3391    0.5809 H         1 <0>         0.0762
     46 H15        -1.7971   -7.7063    1.4476 H         1 <0>         0.0980
     47 H16        -3.8667   -6.4273    1.7861 H         1 <0>         0.0850
     48 H17        -3.4529   -6.4067    0.0524 H         1 <0>         0.1088
     49 H18         3.1223   -7.5904    2.7165 H         1 <0>         0.2693
     50 H19        -0.9409   -7.9854    5.6587 H         1 <0>         0.1147
     51 H20        -0.0372   -6.6094    6.3454 H         1 <0>         0.1068
     52 H21        -2.5026   -6.1386    5.8322 H         1 <0>         0.1097
     53 H22        -1.3458   -5.0156    5.0800 H         1 <0>         0.0555
     54 H23        -3.1292   -5.9688    3.6060 H         1 <0>         0.3705
     55 H24        -4.7099   -2.3033   -1.6148 H         1 <0>         0.4136
     56 H25        -5.9552   -1.6769   -2.8100 H         1 <0>         0.1362
     57 H26        -7.6095   -0.6650   -4.3221 H         1 <0>         0.1433
     58 H27        -7.4148    2.9868   -2.1205 H         1 <0>         0.1442
     59 H28        -5.7674    1.9891   -0.5914 H         1 <0>         0.1468
     60 H29         2.1521   -7.8317    5.0093 H         1 <0>         0.4658
@<TRIPOS>BOND
     1    1    2 1
     2    1   34 1
     3    1   35 1
     4    1   36 1
     5    2    3 1
     6    3    4 1
     7    3   37 1
     8    3   38 1
     9    4    5 1
    10    4   39 1
    11    4   40 1
    12    5    6 1
    13    5    7 1
    14    5   24 1
    15    7    8 2
    16    7    9 am
    17    9   14 1
    18    9   10 1
    19   10   11 1
    20   10   41 1
    21   10   42 1
    22   11   12 1
    23   11   43 1
    24   11   44 1
    25   12   23 1
    26   12   13 1
    27   12   15 1
    28   13   14 1
    29   13   45 1
    30   13   46 1
    31   14   47 1
    32   14   48 1
    33   15   19 1
    34   15   16 2
    35   16   17 1
    36   16   21 1
    37   17   18 2
    38   17   60 1
    39   18   19 1
    40   18   49 1
    41   19   20 1
    42   21   22 1
    43   21   50 1
    44   21   51 1
    45   22   23 1
    46   22   52 1
    47   22   53 1
    48   23   54 1
    49   24   25 am
    50   24   55 1
    51   25   26 2
    52   25   27 1
    53   27   32 ar
    54   27   28 ar
    55   28   29 ar
    56   28   56 1
    57   29   30 ar
    58   29   57 1
    59   30   31 ar
    60   30   33 1
    61   31   32 ar
    62   31   58 1
    63   32   59 1
@<TRIPOS>MOLECULE
ZINC39631988
   75    78     0     0     0
SMALL
USER_CHARGES

@<TRIPOS>ATOM
      1 C1         -2.0541    1.4641    1.2003 C.3       1 <0>        -0.1635
      2 C2         -0.6002    1.1567    0.8362 C.3       1 <0>         0.1389
      3 H1         -0.5739    0.3924    0.0595 H         1 <0>         0.0938
      4 C3          0.0769    2.4291    0.3227 C.3       1 <0>        -0.1290
      5 C4          1.4907    2.0960   -0.1579 C.3       1 <0>        -0.1178
      6 C5          2.1678    3.3683   -0.6714 C.3       1 <0>        -0.1450
      7 C6          3.5816    3.0353   -1.1520 C.3       1 <0>         0.1251
      8 C7          4.3025    4.3251   -1.5488 C.3       1 <0>        -0.1818
      9 C8          4.3539    2.3452   -0.0258 C.3       1 <0>        -0.1411
     10 O1          3.5076    2.1639   -2.2822 O.3       1 <0>        -0.5594
     11 N1          0.1084    0.6714    2.0231 N.am      1 <0>        -0.7208
     12 C9          0.0512   -0.6335    2.3554 C.2       1 <0>         0.5211
     13 O2         -0.5868   -1.4059    1.6720 O.2       1 <0>        -0.5179
     14 C10         0.7801   -1.1327    3.5763 C.3       1 <0>        -0.1139
     15 H2          1.6586   -0.5175    3.7710 H         1 <0>         0.1106
     16 C11         1.1889   -2.6113    3.3918 C.3       1 <0>         0.1087
     17 N2          1.0067   -3.2201    4.7305 N.am      1 <0>        -0.6177
     18 C12        -0.2367   -2.6022    5.2503 C.3       1 <0>         0.1108
     19 C13        -0.1558   -1.1311    4.7967 C.3       1 <0>        -0.0722
     20 C14         0.4288   -0.2669    5.9098 C.3       1 <0>        -0.1341
     21 C15        -0.5461   -0.2352    7.0902 C.3       1 <0>        -0.0111
     22 N3         -1.8358    0.3084    6.6474 N.4       1 <0>        -0.5042
     23 C16        -2.4348   -0.5784    5.6428 C.3       1 <0>        -0.0080
     24 C17        -1.5396   -0.6249    4.4013 C.3       1 <0>        -0.1478
     25 C18         1.7936   -4.1300    5.3382 C.2       1 <0>         0.6349
     26 O3          1.5073   -4.5372    6.4490 O.2       1 <0>        -0.5114
     27 C19         2.9934   -4.6287    4.6620 C.2       1 <0>        -0.0928
     28 C20         3.8777   -5.5585    5.1643 C.2       1 <0>        -0.0967
     29 C21         4.8680   -5.7391    4.1937 C.2       1 <0>        -0.1931
     30 C22         4.5561   -4.9218    3.1449 C.2       1 <0>         0.0703
     31 O4          3.4225   -4.2620    3.4357 O.3       1 <0>        -0.1508
     32 C23         5.3327   -4.7897    1.8962 C.ar      1 <0>        -0.0749
     33 C24         6.7117   -4.5747    1.9468 C.ar      1 <0>        -0.0588
     34 C25         7.4311   -4.4521    0.7767 C.ar      1 <0>        -0.1269
     35 C26         6.7908   -4.5415   -0.4472 C.ar      1 <0>        -0.0692
     36 C27         5.4257   -4.7538   -0.5075 C.ar      1 <0>        -0.1524
     37 C28         4.6920   -4.8849    0.6567 C.ar      1 <0>         0.1251
     38 F1          3.3593   -5.0983    0.5974 F         1 <0>        -0.1289
     39 H3         -2.0803    2.2284    1.9770 H         1 <0>         0.0540
     40 H4         -2.5813    1.8252    0.3173 H         1 <0>         0.0721
     41 H5         -2.5364    0.5577    1.5662 H         1 <0>         0.0592
     42 H6         -0.5011    2.8394   -0.5053 H         1 <0>         0.0821
     43 H7          0.1300    3.1624    1.1274 H         1 <0>         0.0667
     44 H8          2.0687    1.6857    0.6701 H         1 <0>         0.0643
     45 H9          1.4376    1.3626   -0.9625 H         1 <0>         0.0713
     46 H10         1.5898    3.7787   -1.4994 H         1 <0>         0.0669
     47 H11         2.2209    4.1017    0.1333 H         1 <0>         0.0700
     48 H12         4.3590    4.9898   -0.6867 H         1 <0>         0.0651
     49 H13         5.3098    4.0879   -1.8912 H         1 <0>         0.0658
     50 H14         3.7524    4.8167   -2.3512 H         1 <0>         0.0593
     51 H15         3.8403    1.4263    0.2569 H         1 <0>         0.0628
     52 H16         5.3611    2.1080   -0.3682 H         1 <0>         0.0630
     53 H17         4.4103    3.0099    0.8363 H         1 <0>         0.0671
     54 H18         3.0305    2.5371   -3.0360 H         1 <0>         0.3769
     55 H19         0.6187    1.2892    2.5697 H         1 <0>         0.3982
     56 H20         0.5405   -3.0966    2.6622 H         1 <0>         0.1024
     57 H21         2.2313   -2.6814    3.0811 H         1 <0>         0.1022
     58 H22        -1.1120   -3.0871    4.8180 H         1 <0>         0.0884
     59 H23        -0.2656   -2.6629    6.3383 H         1 <0>         0.0920
     60 H24         1.3805   -0.6872    6.2350 H         1 <0>         0.1181
     61 H25         0.5853    0.7463    5.5398 H         1 <0>         0.0967
     62 H26        -0.6896   -1.2468    7.4700 H         1 <0>         0.1347
     63 H27        -0.1387    0.3949    7.8809 H         1 <0>         0.1402
     64 H28        -2.4565    0.3852    7.4392 H         1 <0>         0.4343
     65 H29        -2.5338   -1.5818    6.0569 H         1 <0>         0.1339
     66 H30        -3.4195   -0.2012    5.3665 H         1 <0>         0.1394
     67 H31        -1.4536    0.3754    3.9770 H         1 <0>         0.0986
     68 H32        -1.9760   -1.2977    3.6630 H         1 <0>         0.1268
     69 H33         3.8177   -6.0523    6.1229 H         1 <0>         0.1677
     70 H34         5.7195   -6.4000    4.2610 H         1 <0>         0.1655
     71 H35         7.2137   -4.5042    2.9005 H         1 <0>         0.1413
     72 H36         8.4975   -4.2855    0.8154 H         1 <0>         0.1413
     73 H37         7.3602   -4.4446   -1.3598 H         1 <0>         0.1418
     74 H38         4.9326   -4.8218   -1.4659 H         1 <0>         0.1445
     75 H39        -1.6935    1.2227    6.2450 H         1 <0>         0.4273
@<TRIPOS>BOND
     1    1    2 1
     2    1   39 1
     3    1   40 1
     4    1   41 1
     5    2    3 1
     6    2    4 1
     7    2   11 1
     8    4    5 1
     9    4   42 1
    10    4   43 1
    11    5    6 1
    12    5   44 1
    13    5   45 1
    14    6    7 1
    15    6   46 1
    16    6   47 1
    17    7    8 1
    18    7    9 1
    19    7   10 1
    20    8   48 1
    21    8   49 1
    22    8   50 1
    23    9   51 1
    24    9   52 1
    25    9   53 1
    26   10   54 1
    27   11   12 am
    28   11   55 1
    29   12   13 2
    30   12   14 1
    31   14   15 1
    32   14   19 1
    33   14   16 1
    34   16   17 1
    35   16   56 1
    36   16   57 1
    37   17   18 1
    38   17   25 am
    39   18   19 1
    40   18   58 1
    41   18   59 1
    42   19   24 1
    43   19   20 1
    44   20   21 1
    45   20   60 1
    46   20   61 1
    47   21   22 1
    48   21   62 1
    49   21   63 1
    50   22   23 1
    51   22   64 1
    52   22   75 1
    53   23   24 1
    54   23   65 1
    55   23   66 1
    56   24   67 1
    57   24   68 1
    58   25   26 2
    59   25   27 1
    60   27   31 1
    61   27   28 2
    62   28   29 1
    63   28   69 1
    64   29   30 2
    65   29   70 1
    66   30   31 1
    67   30   32 1
    68   32   37 ar
    69   32   33 ar
    70   33   34 ar
    71   33   71 1
    72   34   35 ar
    73   34   72 1
    74   35   36 ar
    75   35   73 1
    76   36   37 ar
    77   36   74 1
    78   37   38 1
@<TRIPOS>MOLECULE
ZINC44552071
   72    76     0     0     0
SMALL
USER_CHARGES

@<TRIPOS>ATOM
      1 C1          2.0518    0.8031    1.0106 C.3       1 <0>        -0.1338
      2 C2          1.7944   -0.6965    0.7959 C.3       1 <0>        -0.0662
      3 C3          0.3068   -1.0791    1.0269 C.3       1 <0>        -0.1224
      4 C4          0.2730   -2.4408    0.2883 C.3       1 <0>         0.1381
      5 H1         -0.7529   -2.7412    0.0399 H         1 <0>         0.1057
      6 C5          0.9697   -3.4597    1.1870 C.3       1 <0>        -0.1248
      7 C6          2.3823   -3.0661    1.5804 C.3       1 <0>        -0.0518
      8 C7          2.6396   -1.5770    1.7147 C.3       1 <0>        -0.1024
      9 C8          2.6658   -3.7059    2.9629 C.3       1 <0>        -0.1506
     10 C9          3.3872   -3.6895    0.6010 C.3       1 <0>        -0.1434
     11 N1          1.0844   -2.2330   -0.9276 N.pl3     1 <0>        -0.5762
     12 C10         2.0192   -1.1267   -0.6712 C.3       1 <0>         0.1130
     13 C11         0.9778   -2.9499   -2.1135 C.ar      1 <0>         0.3991
     14 C12         0.0692   -4.0030   -2.2129 C.ar      1 <0>         0.0777
     15 N2         -0.0341   -4.6857   -3.3382 N.ar      1 <0>        -0.3807
     16 C13         0.7218   -4.3750   -4.3757 C.ar      1 <0>         0.0562
     17 C14         1.6335   -3.3232   -4.2853 C.ar      1 <0>         0.0562
     18 N3          1.7357   -2.6297   -3.1521 N.ar      1 <0>        -0.5051
     19 C15         2.4806   -2.9755   -5.4456 C.cat     1 <0>         0.5866
     20 N4          2.8534   -1.7413   -5.6334 N.pl3     1 <0>        -0.3586
     21 N5          2.2937   -0.7152   -4.8609 N.pl3     1 <0>        -0.4851
     22 C16         2.7512    0.5466   -4.9834 C.2       1 <0>         0.5418
     23 S1          3.9278    0.9192   -6.1698 S.2       1 <0>        -0.5642
     24 N6          2.2823    1.5152   -4.1718 N.pl3     1 <0>        -0.5305
     25 C17         2.6757    2.9166   -4.3748 C.3       1 <0>         0.0821
     26 C18         1.4068    3.7653   -4.5224 C.3       1 <0>         0.1079
     27 N7          0.4926    3.4390   -3.4190 N.pl3     1 <0>        -0.6338
     28 C19         0.0992    2.0377   -3.2160 C.3       1 <0>         0.1106
     29 C20         1.3636    1.1896   -3.0719 C.3       1 <0>         0.0690
     30 C21         0.0067    4.4428   -2.5780 C.ar      1 <0>         0.2066
     31 C22         0.2830    5.7760   -2.8534 C.ar      1 <0>        -0.1904
     32 C23        -0.1994    6.7660   -2.0200 C.ar      1 <0>        -0.0686
     33 C24        -0.9564    6.4313   -0.9122 C.ar      1 <0>        -0.1662
     34 C25        -1.2334    5.1051   -0.6351 C.ar      1 <0>        -0.0709
     35 C26        -0.7589    4.1104   -1.4675 C.ar      1 <0>        -0.1956
     36 N8          2.8800   -3.9666   -6.3376 N.pl3     1 <0>        -0.7628
     37 H2          3.1007    1.0237    0.8124 H         1 <0>         0.0626
     38 H3          1.4245    1.3803    0.3314 H         1 <0>         0.0602
     39 H4          1.8130    1.0690    2.0403 H         1 <0>         0.0729
     40 H5          0.0862   -1.1946    2.0876 H         1 <0>         0.1007
     41 H6         -0.3646   -0.3576    0.5616 H         1 <0>         0.0815
     42 H7          0.3718   -3.5976    2.1003 H         1 <0>         0.0860
     43 H8          0.9959   -4.4333    0.6775 H         1 <0>         0.0680
     44 H9          3.7048   -1.3794    1.5160 H         1 <0>         0.0669
     45 H10         2.4581   -1.2777    2.7591 H         1 <0>         0.0735
     46 H11         2.5760   -4.7896    2.8870 H         1 <0>         0.0571
     47 H12         3.6748   -3.4465    3.2833 H         1 <0>         0.0581
     48 H13         1.9459   -3.3318    3.6908 H         1 <0>         0.0589
     49 H14         3.1809   -3.3319   -0.4078 H         1 <0>         0.0486
     50 H15         4.3992   -3.4039    0.8880 H         1 <0>         0.0562
     51 H16         3.2947   -4.7753    0.6276 H         1 <0>         0.0542
     52 H17         1.7839   -0.2913   -1.3378 H         1 <0>         0.0618
     53 H18         3.0461   -1.4373   -0.8323 H         1 <0>         0.0800
     54 H19        -0.5512   -4.2609   -1.3674 H         1 <0>         0.1884
     55 H20         0.6343   -4.9359   -5.2944 H         1 <0>         0.1847
     56 H21         1.5770   -0.9129   -4.2379 H         1 <0>         0.4414
     57 H22         3.2500    3.2634   -3.5157 H         1 <0>         0.1013
     58 H23         3.2788    2.9999   -5.2789 H         1 <0>         0.1432
     59 H24         1.6673    4.8229   -4.4811 H         1 <0>         0.1136
     60 H25         0.9257    3.5415   -5.4745 H         1 <0>         0.0750
     61 H26        -0.5039    1.9543   -2.3119 H         1 <0>         0.1093
     62 H27        -0.4751    1.6908   -4.0751 H         1 <0>         0.0698
     63 H28         1.1004    0.1328   -3.1157 H         1 <0>         0.0807
     64 H29         1.8423    1.4107   -2.1179 H         1 <0>         0.1084
     65 H30         0.8748    6.0380   -3.7180 H         1 <0>         0.1240
     66 H31         0.0151    7.8027   -2.2335 H         1 <0>         0.1258
     67 H32        -1.3318    7.2074   -0.2617 H         1 <0>         0.1229
     68 H33        -1.8249    4.8471    0.2309 H         1 <0>         0.1235
     69 H34        -0.9793    3.0751   -1.2531 H         1 <0>         0.1178
     70 H35         2.6025   -4.8855   -6.1978 H         1 <0>         0.4508
     71 H36         3.4359   -3.7384   -7.0990 H         1 <0>         0.4399
     72 H37         3.5184   -1.5328   -6.3081 H         1 <0>         0.4661
@<TRIPOS>BOND
     1    1    2 1
     2    1   37 1
     3    1   38 1
     4    1   39 1
     5    2    8 1
     6    2   12 1
     7    2    3 1
     8    3    4 1
     9    3   40 1
    10    3   41 1
    11    4    5 1
    12    4    6 1
    13    4   11 1
    14    6    7 1
    15    6   42 1
    16    6   43 1
    17    7    8 1
    18    7    9 1
    19    7   10 1
    20    8   44 1
    21    8   45 1
    22    9   46 1
    23    9   47 1
    24    9   48 1
    25   10   49 1
    26   10   50 1
    27   10   51 1
    28   11   12 1
    29   11   13 1
    30   12   52 1
    31   12   53 1
    32   13   18 ar
    33   13   14 ar
    34   14   15 ar
    35   14   54 1
    36   15   16 ar
    37   16   17 ar
    38   16   55 1
    39   17   18 ar
    40   17   19 1
    41   19   20 2
    42   19   36 1
    43   20   21 1
    44   20   72 1
    45   21   22 1
    46   21   56 1
    47   22   23 2
    48   22   24 1
    49   24   29 1
    50   24   25 1
    51   25   26 1
    52   25   57 1
    53   25   58 1
    54   26   27 1
    55   26   59 1
    56   26   60 1
    57   27   28 1
    58   27   30 1
    59   28   29 1
    60   28   61 1
    61   28   62 1
    62   29   63 1
    63   29   64 1
    64   30   35 ar
    65   30   31 ar
    66   31   32 ar
    67   31   65 1
    68   32   33 ar
    69   32   66 1
    70   33   34 ar
    71   33   67 1
    72   34   35 ar
    73   34   68 1
    74   35   69 1
    75   36   70 1
    76   36   71 1
@<TRIPOS>MOLECULE
ZINC63399214
   66    69     0     0     0
SMALL
USER_CHARGES

@<TRIPOS>ATOM
      1 C1          3.2836    0.8218    9.1356 C.3       1 <0>        -0.1500
      2 C2          3.1409   -0.6891    8.9410 C.3       1 <0>        -0.1241
      3 C3          3.4053   -1.0418    7.4758 C.3       1 <0>        -0.1292
      4 C4          3.1431   -2.5329    7.2549 C.3       1 <0>         0.1111
      5 N1          3.5091   -2.8951    5.8834 N.am      1 <0>        -0.6485
      6 C5          2.4855   -2.9083    4.8344 C.3       1 <0>         0.2389
      7 H1          1.6697   -2.2414    5.1132 H         1 <0>         0.1663
      8 C6          3.1077   -2.4332    3.5188 C.3       1 <0>         0.0854
      9 H2          2.4364   -2.6683    2.6929 H         1 <0>         0.1189
     10 C7          4.4262   -3.1336    3.3106 C.2       1 <0>         0.4322
     11 O1          4.8354   -3.4269    2.0657 O.3       1 <0>        -0.5978
     12 N2          5.1720   -3.4563    4.3291 N.2       1 <0>        -0.6495
     13 C8          4.7834   -3.2084    5.5915 C.2       1 <0>         0.6647
     14 O2          5.6018   -3.2733    6.4898 O.2       1 <0>        -0.5311
     15 N3          3.3255   -0.9856    3.5754 N.am      1 <0>        -0.5686
     16 C9          4.6877   -0.4478    3.5377 C.3       1 <0>         0.1382
     17 C10         5.0195   -0.0185    2.1317 C.ar      1 <0>        -0.1235
     18 C11         5.5772   -0.9222    1.2466 C.ar      1 <0>        -0.0888
     19 C12         5.8816   -0.5284   -0.0430 C.ar      1 <0>        -0.1147
     20 C13         5.6279    0.7688   -0.4477 C.ar      1 <0>        -0.1082
     21 C14         5.0694    1.6721    0.4371 C.ar      1 <0>        -0.1330
     22 C15         4.7611    1.2772    1.7255 C.ar      1 <0>        -0.1288
     23 C16         2.2727   -0.1486    3.6621 C.2       1 <0>         0.5284
     24 O3          1.1514   -0.5950    3.7814 O.2       1 <0>        -0.5435
     25 C17         2.4888    1.3419    3.6108 C.3       1 <0>        -0.1566
     26 C18         1.1760    2.0589    3.9319 C.3       1 <0>        -0.0767
     27 C19         1.3617    3.5452    3.7658 C.2       1 <0>         0.0673
     28 C20         1.0953    4.2796    2.6616 C.ar      1 <0>        -0.1688
     29 C21         0.5741    3.9278    1.3354 C.ar      1 <0>        -0.0104
     30 C22         0.4122    4.9044    0.4140 C.ar      1 <0>        -0.1514
     31 C23         0.7292    6.2409    0.6931 C.ar      1 <0>         0.0560
     32 C24         1.2126    6.6415    1.8881 C.ar      1 <0>        -0.2108
     33 C25         1.4221    5.6980    2.9314 C.ar      1 <0>         0.3281
     34 N4          1.8728    5.8352    4.1548 N.pl3     1 <0>        -0.5865
     35 C26         1.8773    4.5186    4.8021 C.3       1 <0>         0.0594
     36 N5          1.9690   -4.2736    4.6698 N.4       1 <0>        -0.6483
     37 H3          2.6262    1.3415    8.4386 H         1 <0>         0.0469
     38 H4          3.0097    1.0839   10.1575 H         1 <0>         0.0582
     39 H5          4.3164    1.1162    8.9493 H         1 <0>         0.0552
     40 H6          3.8609   -1.2066    9.5749 H         1 <0>         0.0701
     41 H7          2.1310   -0.9966    9.2122 H         1 <0>         0.0622
     42 H8          2.7434   -0.4578    6.8364 H         1 <0>         0.0535
     43 H9          4.4424   -0.8147    7.2289 H         1 <0>         0.0716
     44 H10         3.7411   -3.1148    7.9562 H         1 <0>         0.0982
     45 H11         2.0860   -2.7437    7.4165 H         1 <0>         0.0722
     46 H12         4.7580    0.4106    4.2058 H         1 <0>         0.0859
     47 H13         5.3908   -1.2164    3.8584 H         1 <0>         0.1131
     48 H14         5.7753   -1.9357    1.5628 H         1 <0>         0.1695
     49 H15         6.3179   -1.2342   -0.7343 H         1 <0>         0.1259
     50 H16         5.8664    1.0766   -1.4551 H         1 <0>         0.1222
     51 H17         4.8716    2.6857    0.1210 H         1 <0>         0.1167
     52 H18         4.3213    1.9820    2.4156 H         1 <0>         0.1137
     53 H19         3.2457    1.6247    4.3425 H         1 <0>         0.1066
     54 H20         2.8237    1.6264    2.6133 H         1 <0>         0.1264
     55 H21         0.3970    1.7120    3.2530 H         1 <0>         0.1209
     56 H22         0.8853    1.8417    4.9598 H         1 <0>         0.1153
     57 H23         0.3240    2.9041    1.0987 H         1 <0>         0.1604
     58 H24         0.0288    4.6478   -0.5626 H         1 <0>         0.1579
     59 H25         0.5811    6.9806   -0.0798 H         1 <0>         0.1610
     60 H26         1.4417    7.6840    2.0527 H         1 <0>         0.1605
     61 H27         1.2212    4.5232    5.6725 H         1 <0>         0.1743
     62 H28         2.8919    4.2507    5.0971 H         1 <0>         0.1725
     63 H29         1.5634   -4.5869    5.5389 H         1 <0>         0.4331
     64 H30         1.2645   -4.2818    3.9475 H         1 <0>         0.4394
     65 H31         2.1528    6.6685    4.5648 H         1 <0>         0.4559
     66 H32         2.7244   -4.8899    4.4097 H         1 <0>         0.4345
@<TRIPOS>BOND
     1    1    2 1
     2    1   37 1
     3    1   38 1
     4    1   39 1
     5    2    3 1
     6    2   40 1
     7    2   41 1
     8    3    4 1
     9    3   42 1
    10    3   43 1
    11    4    5 1
    12    4   44 1
    13    4   45 1
    14    5   13 am
    15    5    6 1
    16    6    7 1
    17    6    8 1
    18    6   36 1
    19    8    9 1
    20    8   10 1
    21    8   15 1
    22   10   11 1
    23   10   12 2
    24   12   13 1
    25   13   14 2
    26   15   16 1
    27   15   23 am
    28   16   17 1
    29   16   46 1
    30   16   47 1
    31   17   22 ar
    32   17   18 ar
    33   18   19 ar
    34   18   48 1
    35   19   20 ar
    36   19   49 1
    37   20   21 ar
    38   20   50 1
    39   21   22 ar
    40   21   51 1
    41   22   52 1
    42   23   24 2
    43   23   25 1
    44   25   26 1
    45   25   53 1
    46   25   54 1
    47   26   27 1
    48   26   55 1
    49   26   56 1
    50   27   35 1
    51   27   28 2
    52   28   33 ar
    53   28   29 ar
    54   29   30 ar
    55   29   57 1
    56   30   31 ar
    57   30   58 1
    58   31   32 ar
    59   31   59 1
    60   32   33 ar
    61   32   60 1
    62   33   34 2
    63   34   35 1
    64   34   65 1
    65   35   61 1
    66   35   62 1
    67   36   63 1
    68   36   64 1
    69   36   66 1
@<TRIPOS>MOLECULE
ZINC37063033
   39    41     0     0     0
SMALL
USER_CHARGES

@<TRIPOS>ATOM
      1 C1         -0.0167    1.3781    0.0096 C.ar      1 <0>        -0.2052
      2 C2          1.1774    2.0876    0.0020 C.ar      1 <0>         0.3018
      3 C3          2.3874    1.4056   -0.0132 C.ar      1 <0>        -0.2054
      4 C4          2.4002    0.0234   -0.0207 C.ar      1 <0>         0.1119
      5 C5          1.2090   -0.6809   -0.0136 C.ar      1 <0>        -0.7429
      6 C6          0.0021   -0.0041    0.0020 C.ar      1 <0>         0.1032
      7 Cl1        -1.4898   -0.8916    0.0115 Cl        1 <0>        -0.0205
      8 S1          1.2291   -2.4428   -0.0238 S.o2      1 <0>         2.6839
      9 O1         -0.0166   -2.8600   -0.5654 O.2       1 <0>        -0.9338
     10 O2          2.4738   -2.8314   -0.5886 O.2       1 <0>        -0.9242
     11 N1          1.2495   -2.9414    1.5552 N.pl3     1 <0>        -1.1118
     12 C7          0.1044   -2.6638    2.4258 C.3       1 <0>         0.1408
     13 H1         -0.4341   -1.7921    2.0542 H         1 <0>         0.1185
     14 C8         -0.8309   -3.8749    2.4446 C.3       1 <0>        -0.0288
     15 N2         -0.9575   -4.3898    3.8101 N.4       1 <0>        -0.3739
     16 C9          0.3436   -4.8325    4.3168 C.3       1 <0>        -0.0100
     17 C10         1.3181   -3.6534    4.3601 C.3       1 <0>        -0.1406
     18 C11         0.5976   -2.3936    3.8534 C.3       1 <0>        -0.1068
     19 C12        -0.6237   -2.1435    4.7480 C.3       1 <0>        -0.1365
     20 C13        -1.5364   -3.3741    4.6926 C.3       1 <0>        -0.0109
     21 Cl2         3.9120   -0.8297   -0.0397 Cl        1 <0>        -0.0070
     22 N3          1.1615    3.4841    0.0092 N.pl3     1 <0>        -0.8466
     23 H2         -0.9588    1.9057    0.0259 H         1 <0>         0.1501
     24 H3          3.3173    1.9548   -0.0195 H         1 <0>         0.1512
     25 H4          2.0196   -3.4172    1.9036 H         1 <0>         0.4235
     26 H5         -1.8135   -3.5787    2.0772 H         1 <0>         0.1421
     27 H6         -0.4257   -4.6549    1.8000 H         1 <0>         0.1437
     28 H7          0.2216   -5.2380    5.3212 H         1 <0>         0.1340
     29 H8          0.7423   -5.6072    3.6618 H         1 <0>         0.1318
     30 H9          1.6536   -3.4942    5.3849 H         1 <0>         0.1078
     31 H10         2.1758   -3.8646    3.7215 H         1 <0>         0.1004
     32 H11         1.2731   -1.5382    3.8640 H         1 <0>         0.1268
     33 H12        -0.2967   -1.9756    5.7741 H         1 <0>         0.1084
     34 H13        -1.1674   -1.2700    4.3882 H         1 <0>         0.1035
     35 H14        -2.5149   -3.0803    4.3128 H         1 <0>         0.1327
     36 H15        -1.6486   -3.7874    5.6949 H         1 <0>         0.1341
     37 H16         0.3160    3.9595    0.0195 H         1 <0>         0.4123
     38 H17         1.9959    3.9787    0.0039 H         1 <0>         0.4131
     39 H18        -1.5743   -5.1881    3.7943 H         1 <0>         0.4297
@<TRIPOS>BOND
     1    1    6 ar
     2    1    2 ar
     3    1   23 1
     4    2    3 ar
     5    2   22 1
     6    3    4 ar
     7    3   24 1
     8    4    5 ar
     9    4   21 1
    10    5    6 ar
    11    5    8 1
    12    6    7 1
    13    8    9 2
    14    8   10 2
    15    8   11 1
    16   11   12 1
    17   11   25 1
    18   12   13 1
    19   12   18 1
    20   12   14 1
    21   14   15 1
    22   14   26 1
    23   14   27 1
    24   15   20 1
    25   15   16 1
    26   15   39 1
    27   16   17 1
    28   16   28 1
    29   16   29 1
    30   17   18 1
    31   17   30 1
    32   17   31 1
    33   18   19 1
    34   18   32 1
    35   19   20 1
    36   19   33 1
    37   19   34 1
    38   20   35 1
    39   20   36 1
    40   22   37 1
    41   22   38 1
@<TRIPOS>MOLECULE
ZINC38011171
   38    39     0     0     0
SMALL
USER_CHARGES

@<TRIPOS>ATOM
      1 C1          0.1893    1.8644   -0.1889 C.3       1 <0>        -0.1760
      2 C2          0.1948    0.3409   -0.0483 C.3       1 <0>        -0.1420
      3 C3          0.7274   -0.2883   -1.3372 C.3       1 <0>         0.0838
      4 H1          1.7029    0.1372   -1.5731 H         1 <0>         0.1574
      5 C4          0.8608   -1.7778   -1.1513 C.ar      1 <0>        -0.1533
      6 C5         -0.1088   -2.6263   -1.6502 C.ar      1 <0>        -0.0932
      7 C6          0.0131   -3.9935   -1.4798 C.ar      1 <0>        -0.0894
      8 C7          1.1059   -4.5144   -0.8097 C.ar      1 <0>        -0.0518
      9 C8          2.0776   -3.6697   -0.3098 C.ar      1 <0>        -0.1200
     10 C9          1.9599   -2.2983   -0.4842 C.ar      1 <0>         0.1564
     11 O1          2.9174   -1.4656    0.0028 O.3       1 <0>        -0.4892
     12 Br1        -1.3158   -5.1524   -2.1631 Br        1 <0>        -0.0172
     13 N1         -0.2057   -0.0138   -2.4381 N.4       1 <0>        -0.5100
     14 C10         0.3742   -0.4887   -3.7014 C.3       1 <0>         0.0803
     15 C11        -0.5244   -0.0959   -4.8457 C.2       1 <0>        -0.3222
     16 C12        -1.4205   -0.8981   -5.4659 C.2       1 <0>         0.1192
     17 N2         -2.0214   -0.1732   -6.4326 N.pl3     1 <0>        -0.4536
     18 H2         -2.7093   -0.4896   -7.0389 H         1 <0>         0.4543
     19 N3         -1.4766    1.1171   -6.4056 N.2       1 <0>        -0.2669
     20 C13        -0.5839    1.1640   -5.4502 C.2       1 <0>         0.0977
     21 C14         0.2409    2.3665   -5.0698 C.3       1 <0>        -0.0879
     22 H3          1.1816    2.2057   -0.4837 H         1 <0>         0.0753
     23 H4         -0.5360    2.1566   -0.9483 H         1 <0>         0.0551
     24 H5         -0.0818    2.3164    0.7653 H         1 <0>         0.0871
     25 H6          0.8346    0.0554    0.7867 H         1 <0>         0.1089
     26 H7         -0.8205   -0.0107    0.1351 H         1 <0>         0.0906
     27 H8         -0.9627   -2.2217   -2.1732 H         1 <0>         0.1294
     28 H9          1.1989   -5.5822   -0.6771 H         1 <0>         0.1512
     29 H10         2.9303   -4.0767    0.2135 H         1 <0>         0.1542
     30 H11         2.7566   -1.1687    0.9089 H         1 <0>         0.4047
     31 H12        -1.0774   -0.4923   -2.2672 H         1 <0>         0.4210
     32 H13         1.3576   -0.0399   -3.8412 H         1 <0>         0.1403
     33 H14         0.4710   -1.5740   -3.6715 H         1 <0>         0.1356
     34 H15        -1.6191   -1.9330   -5.2296 H         1 <0>         0.1897
     35 H16         1.1657    2.3699   -5.6466 H         1 <0>         0.0941
     36 H17        -0.3226    3.2753   -5.2813 H         1 <0>         0.0903
     37 H18         0.4760    2.3241   -4.0063 H         1 <0>         0.0677
     38 H19        -0.3732    0.9794   -2.4972 H         1 <0>         0.4284
@<TRIPOS>BOND
     1    1    2 1
     2    1   22 1
     3    1   23 1
     4    1   24 1
     5    2    3 1
     6    2   25 1
     7    2   26 1
     8    3    4 1
     9    3    5 1
    10    3   13 1
    11    5   10 ar
    12    5    6 ar
    13    6    7 ar
    14    6   27 1
    15    7    8 ar
    16    7   12 1
    17    8    9 ar
    18    8   28 1
    19    9   10 ar
    20    9   29 1
    21   10   11 1
    22   11   30 1
    23   13   14 1
    24   13   31 1
    25   13   38 1
    26   14   15 1
    27   14   32 1
    28   14   33 1
    29   15   20 1
    30   15   16 2
    31   16   17 1
    32   16   34 1
    33   17   18 1
    34   17   19 1
    35   19   20 2
    36   20   21 1
    37   21   35 1
    38   21   36 1
    39   21   37 1
@<TRIPOS>MOLECULE
ZINC43401427
   31    32     0     0     0
SMALL
USER_CHARGES

@<TRIPOS>ATOM
      1 C1         -0.5099    1.4566    0.1579 C.3       1 <0>        -0.1262
      2 C2         -0.3642   -0.0424    0.1041 C.ar      1 <0>         0.2391
      3 C3         -0.4341   -0.6884   -1.1172 C.ar      1 <0>        -0.1971
      4 C4         -0.3000   -2.0647   -1.1675 C.ar      1 <0>         0.0198
      5 C5         -0.0968   -2.7568    0.0313 C.ar      1 <0>        -0.2467
      6 C6         -0.0377   -2.0306    1.2295 C.ar      1 <0>         0.3825
      7 N1         -0.1670   -0.7144    1.2215 N.ar      1 <0>        -0.5164
      8 O1          0.1582   -2.6805    2.4015 O.3       1 <0>        -0.2420
      9 C7          0.1020   -1.9559    3.5502 C.ar      1 <0>         0.1038
     10 C8          1.2655   -1.4450    4.1068 C.ar      1 <0>        -0.0859
     11 C9          1.2065   -0.7089    5.2742 C.ar      1 <0>        -0.0797
     12 C10        -0.0122   -0.4808    5.8890 C.ar      1 <0>        -0.0158
     13 C11        -1.1740   -0.9896    5.3364 C.ar      1 <0>        -0.0705
     14 C12        -1.1201   -1.7214    4.1649 C.ar      1 <0>        -0.0774
     15 Br1        -2.7091   -2.4097    3.4051 Br        1 <0>        -0.0189
     16 Cl1        -0.0831    0.4447    7.3560 Cl        1 <0>        -0.0309
     17 C13         0.0522   -4.2260    0.0349 C.cat     1 <0>         0.6208
     18 N2         -0.8948   -4.9931   -0.5043 N.pl3     1 <0>        -0.7541
     19 N3          1.1336   -4.7848    0.5774 N.pl3     1 <0>        -0.7452
     20 H1          0.4708    1.9209    0.0534 H         1 <0>         0.1010
     21 H2         -1.1571    1.7881   -0.6541 H         1 <0>         0.0953
     22 H3         -0.9486    1.7450    1.1131 H         1 <0>         0.0921
     23 H4         -0.5923   -0.1233   -2.0238 H         1 <0>         0.1650
     24 H5         -0.3513   -2.5916   -2.1088 H         1 <0>         0.1632
     25 H6          2.2170   -1.6229    3.6278 H         1 <0>         0.1503
     26 H7          2.1122   -0.3114    5.7077 H         1 <0>         0.1558
     27 H8         -2.1240   -0.8107    5.8178 H         1 <0>         0.1564
     28 H9         -1.7148   -4.5925   -0.8329 H         1 <0>         0.4475
     29 H10         1.8229   -4.2264    0.9698 H         1 <0>         0.4472
     30 H11         1.2315   -5.7498    0.5797 H         1 <0>         0.4334
     31 H12        -0.7641   -5.9522   -0.5681 H         1 <0>         0.4334
@<TRIPOS>BOND
     1    1    2 1
     2    1   20 1
     3    1   21 1
     4    1   22 1
     5    2    7 ar
     6    2    3 ar
     7    3    4 ar
     8    3   23 1
     9    4    5 ar
    10    4   24 1
    11    5    6 ar
    12    5   17 1
    13    6    7 ar
    14    6    8 1
    15    8    9 1
    16    9   14 ar
    17    9   10 ar
    18   10   11 ar
    19   10   25 1
    20   11   12 ar
    21   11   26 1
    22   12   13 ar
    23   12   16 1
    24   13   14 ar
    25   13   27 1
    26   14   15 1
    27   17   18 2
    28   17   19 1
    29   18   28 1
    30   18   31 1
    31   19   29 1
    32   19   30 1
@<TRIPOS>MOLECULE
ZINC48948022
   46    47     0     0     0
SMALL
USER_CHARGES

@<TRIPOS>ATOM
      1 C1          0.1216    1.2824    0.1969 C.3       1 <0>        -0.0504
      2 N1         -0.1091   -0.1609    0.0496 N.4       1 <0>        -0.3801
      3 C2         -1.5263   -0.4019   -0.2531 C.3       1 <0>        -0.0059
      4 C3         -2.3804   -0.0010    0.9513 C.3       1 <0>         0.0672
      5 H1         -2.0051   -0.4994    1.8451 H         1 <0>         0.0826
      6 C4         -3.8337   -0.4162    0.7074 C.3       1 <0>        -0.1463
      7 C5         -4.6927    0.0418    1.8900 C.3       1 <0>        -0.1256
      8 C6         -4.5416    1.5566    2.0602 C.3       1 <0>        -0.1616
      9 C7         -3.0610    1.8956    2.2519 C.3       1 <0>         0.0602
     10 O1         -2.3147    1.4150    1.1320 O.3       1 <0>        -0.3854
     11 C8          0.7208   -0.6803   -1.0456 C.3       1 <0>        -0.0448
     12 C9          0.5963   -2.2042   -1.1013 C.3       1 <0>         0.1305
     13 H2         -0.4522   -2.4792   -1.2154 H         1 <0>         0.1320
     14 C10         1.3839   -2.7299   -2.2736 C.ar      1 <0>        -0.1126
     15 C11         2.7374   -2.9824   -2.1363 C.ar      1 <0>        -0.1078
     16 C12         3.4644   -3.4641   -3.2050 C.ar      1 <0>        -0.0423
     17 C13         2.8311   -3.6970   -4.4277 C.ar      1 <0>        -0.0839
     18 C14         1.4648   -3.4401   -4.5592 C.ar      1 <0>        -0.0814
     19 C15         0.7490   -2.9634   -3.4807 C.ar      1 <0>        -0.1044
     20 C16         3.6027   -4.2121   -5.5761 C.2       1 <0>         0.3746
     21 S1          4.8828   -5.3196   -5.3198 S.2       1 <0>        -0.5177
     22 N2          3.2993   -3.8105   -6.8264 N.pl3     1 <0>        -0.7572
     23 O2          1.1079   -2.7684    0.1078 O.3       1 <0>        -0.5447
     24 H3          1.1917    1.4728    0.2780 H         1 <0>         0.1164
     25 H4         -0.2754    1.8044   -0.6738 H         1 <0>         0.1210
     26 H5         -0.3804    1.6407    1.0956 H         1 <0>         0.1436
     27 H6         -1.8187    0.1914   -1.1195 H         1 <0>         0.1397
     28 H7         -1.6768   -1.4596   -0.4695 H         1 <0>         0.1422
     29 H8         -4.1968    0.0498   -0.2086 H         1 <0>         0.0833
     30 H9         -3.8918   -1.5006    0.6133 H         1 <0>         0.0850
     31 H10        -5.7377   -0.2010    1.6973 H         1 <0>         0.0811
     32 H11        -4.3614   -0.4620    2.7981 H         1 <0>         0.0699
     33 H12        -4.9190    2.0624    1.1716 H         1 <0>         0.0772
     34 H13        -5.1060    1.8831    2.9337 H         1 <0>         0.0845
     35 H14        -2.9428    2.9762    2.3308 H         1 <0>         0.1077
     36 H15        -2.6947    1.4222    3.1628 H         1 <0>         0.0601
     37 H16         0.3842   -0.2534   -1.9904 H         1 <0>         0.1430
     38 H17         1.7618   -0.4068   -0.8737 H         1 <0>         0.1389
     39 H18         3.2259   -2.8015   -1.1902 H         1 <0>         0.1351
     40 H19         4.5208   -3.6604   -3.0966 H         1 <0>         0.1531
     41 H20         0.9689   -3.6180   -5.5020 H         1 <0>         0.1357
     42 H21        -0.3085   -2.7681   -3.5798 H         1 <0>         0.1367
     43 H22         2.5740   -3.1830   -6.9716 H         1 <0>         0.4033
     44 H23         3.8062   -4.1489   -7.5809 H         1 <0>         0.4288
     45 H24         2.0383   -2.5640    0.2744 H         1 <0>         0.3909
     46 H25         0.1357   -0.6300    0.9087 H         1 <0>         0.4276
@<TRIPOS>BOND
     1    1    2 1
     2    1   24 1
     3    1   25 1
     4    1   26 1
     5    2    3 1
     6    2   11 1
     7    2   46 1
     8    3    4 1
     9    3   27 1
    10    3   28 1
    11    4    5 1
    12    4   10 1
    13    4    6 1
    14    6    7 1
    15    6   29 1
    16    6   30 1
    17    7    8 1
    18    7   31 1
    19    7   32 1
    20    8    9 1
    21    8   33 1
    22    8   34 1
    23    9   10 1
    24    9   35 1
    25    9   36 1
    26   11   12 1
    27   11   37 1
    28   11   38 1
    29   12   13 1
    30   12   14 1
    31   12   23 1
    32   14   19 ar
    33   14   15 ar
    34   15   16 ar
    35   15   39 1
    36   16   17 ar
    37   16   40 1
    38   17   18 ar
    39   17   20 1
    40   18   19 ar
    41   18   41 1
    42   19   42 1
    43   20   21 2
    44   20   22 1
    45   22   43 1
    46   22   44 1
    47   23   45 1
@<TRIPOS>MOLECULE
ZINC61861526
   35    37     0     0     0
SMALL
USER_CHARGES

@<TRIPOS>ATOM
      1 C1         -0.0167    1.3784    0.0096 C.ar      1 <0>        -0.0853
      2 C2          1.1691    2.0872    0.0021 C.ar      1 <0>        -0.1440
      3 C3          2.3804    1.4092   -0.0130 C.ar      1 <0>         0.2018
      4 C4          2.3956    0.0204   -0.0204 C.ar      1 <0>        -0.1135
      5 C5          1.2075   -0.6825   -0.0128 C.ar      1 <0>        -0.0286
      6 C6          0.0021   -0.0041    0.0020 C.ar      1 <0>        -0.1680
      7 C7         -1.2936   -0.7736    0.0106 C.3       1 <0>         0.1523
      8 H1         -1.1164   -1.7875   -0.3480 H         1 <0>         0.1693
      9 C8         -1.8377   -0.8254    1.4150 C.ar      1 <0>         0.1015
     10 C9         -3.1236   -0.3846    1.6660 C.ar      1 <0>        -0.1877
     11 C10        -3.6149   -0.4364    2.9610 C.ar      1 <0>        -0.0230
     12 C11        -2.7903   -0.9322    3.9607 C.ar      1 <0>        -0.1339
     13 C12        -1.5150   -1.3551    3.6337 C.ar      1 <0>         0.1580
     14 N1         -1.0834   -1.2958    2.3889 N.ar      1 <0>        -0.4403
     15 Br1        -3.4022   -1.0280    5.7474 Br        1 <0>         0.0059
     16 N2         -2.2651   -0.1066   -0.8665 N.4       1 <0>        -0.6354
     17 C13         3.7105   -0.7149   -0.0364 C.3       1 <0>        -0.0831
     18 C14         4.7328    0.0837   -0.8459 C.3       1 <0>        -0.1410
     19 C15         4.7274    1.5217   -0.4023 C.2       1 <0>         0.5184
     20 O1          5.7657    2.1485   -0.3885 O.2       1 <0>        -0.5018
     21 N3          3.5842    2.1202   -0.0203 N.am      1 <0>        -0.6680
     22 H2         -0.9595    1.9048    0.0260 H         1 <0>         0.1237
     23 H3          1.1537    3.1671    0.0076 H         1 <0>         0.1414
     24 H4          1.2191   -1.7624   -0.0188 H         1 <0>         0.1435
     25 H5         -3.7376   -0.0043    0.8630 H         1 <0>         0.1374
     26 H6         -4.6156   -0.0986    3.1867 H         1 <0>         0.1600
     27 H7         -0.8665   -1.7423    4.4056 H         1 <0>         0.1814
     28 H8         -1.9008   -0.0719   -1.8068 H         1 <0>         0.4474
     29 H9         -3.1326   -0.6218   -0.8607 H         1 <0>         0.4401
     30 H10         4.0710   -0.8363    0.9851 H         1 <0>         0.0929
     31 H11         3.5727   -1.6956   -0.4917 H         1 <0>         0.1004
     32 H12         5.7258   -0.3388   -0.6925 H         1 <0>         0.1187
     33 H13         4.4777    0.0304   -1.9043 H         1 <0>         0.1087
     34 H14         3.5953    3.0515    0.2510 H         1 <0>         0.4171
     35 H15        -2.4291    0.8320   -0.5345 H         1 <0>         0.4336
@<TRIPOS>BOND
     1    1    6 ar
     2    1    2 ar
     3    1   22 1
     4    2    3 ar
     5    2   23 1
     6    3   21 1
     7    3    4 ar
     8    4    5 ar
     9    4   17 1
    10    5    6 ar
    11    5   24 1
    12    6    7 1
    13    7    8 1
    14    7    9 1
    15    7   16 1
    16    9   14 ar
    17    9   10 ar
    18   10   11 ar
    19   10   25 1
    20   11   12 ar
    21   11   26 1
    22   12   13 ar
    23   12   15 1
    24   13   14 ar
    25   13   27 1
    26   16   28 1
    27   16   29 1
    28   16   35 1
    29   17   18 1
    30   17   30 1
    31   17   31 1
    32   18   19 1
    33   18   32 1
    34   18   33 1
    35   19   20 2
    36   19   21 am
    37   21   34 1
@<TRIPOS>MOLECULE
ZINC20600725
   73    76     0     0     0
SMALL
USER_CHARGES
6-[(cyclohexyl-methyl-amino)methyl]-N-[(1-morpholinocyclohexyl)methyl]-2-oxo-1H-pyridine-3-carboxamide
@<TRIPOS>ATOM
      1 C1         -4.2018    6.4697   -0.3853 C.3       1 <0>        -0.0575
      2 N1         -3.0316    5.5998   -0.2060 N.4       1 <0>        -0.4039
      3 C2         -2.9030    4.6537   -1.3224 C.3       1 <0>         0.0287
      4 C3         -1.6018    3.9038   -1.1979 C.2       1 <0>         0.1155
      5 C4         -1.6233    2.5683   -0.9548 C.2       1 <0>        -0.1784
      6 C5         -0.4283    1.8590   -0.8363 C.2       1 <0>         0.0051
      7 C6          0.7783    2.5426   -0.9712 C.2       1 <0>        -0.2042
      8 C7          0.7492    3.9384   -1.2248 C.2       1 <0>         0.5337
      9 O1          1.7908    4.5595   -1.3464 O.2       1 <0>        -0.4755
     10 N2         -0.4328    4.5757   -1.3251 N.am      1 <0>        -0.6218
     11 H1         -0.4390    5.6594   -1.5135 H         1 <0>         0.4404
     12 C8          2.0595    1.8299   -0.8533 C.2       1 <0>         0.5534
     13 O2          3.1034    2.4153   -1.0710 O.2       1 <0>        -0.4976
     14 N3          2.0770    0.5283   -0.5040 N.am      1 <0>        -0.7329
     15 C9          3.3545   -0.1528   -0.2797 C.3       1 <0>         0.0895
     16 C10         3.1029   -1.6430   -0.0409 C.3       1 <0>         0.1068
     17 C11         2.0537   -1.8131    1.0597 C.3       1 <0>        -0.1035
     18 C12         2.5603   -1.1680    2.3513 C.3       1 <0>        -0.1215
     19 C13         3.8644   -1.8429    2.7811 C.3       1 <0>        -0.1221
     20 C14         4.9135   -1.6728    1.6805 C.3       1 <0>        -0.1257
     21 C15         4.4070   -2.3179    0.3889 C.3       1 <0>        -0.1085
     22 N4          2.6165   -2.2623   -1.2809 N.3       1 <0>        -0.5184
     23 C16         3.6448   -2.2177   -2.3306 C.3       1 <0>         0.0073
     24 C17         3.1193   -2.9248   -3.5827 C.3       1 <0>         0.0618
     25 O3          1.8972   -2.3071   -3.9954 O.3       1 <0>        -0.3825
     26 C18         0.8733   -2.3332   -2.9973 C.3       1 <0>         0.0617
     27 C19         1.3760   -1.6201   -1.7393 C.3       1 <0>        -0.0148
     28 C20        -3.0940    4.8918    1.0796 C.3       1 <0>         0.0251
     29 C21        -4.3707    4.0505    1.1371 C.3       1 <0>        -0.1390
     30 C22        -4.4356    3.3131    2.4761 C.3       1 <0>        -0.1183
     31 C23        -4.4434    4.3305    3.6188 C.3       1 <0>        -0.1319
     32 C24        -3.1667    5.1718    3.5613 C.3       1 <0>        -0.1189
     33 C25        -3.1018    5.9092    2.2223 C.3       1 <0>        -0.1396
     34 H2         -4.2740    7.1665    0.4628 H         1 <0>         0.1319
     35 H3         -5.1123    5.8543   -0.4328 H         1 <0>         0.1270
     36 H4         -4.0952    7.0396   -1.3201 H         1 <0>         0.1292
     37 H5         -3.7407    3.9412   -1.2975 H         1 <0>         0.1603
     38 H6         -2.9188    5.2051   -2.2741 H         1 <0>         0.1564
     39 H7         -2.5676    2.0542   -0.8527 H         1 <0>         0.1617
     40 H8         -0.4381    0.7965   -0.6426 H         1 <0>         0.1458
     41 H9          1.1321   -0.0226   -0.3873 H         1 <0>         0.4137
     42 H10         3.9975   -0.0264   -1.1632 H         1 <0>         0.0764
     43 H11         3.8516    0.2808    0.6005 H         1 <0>         0.0827
     44 H12         1.1162   -1.3278    0.7507 H         1 <0>         0.0527
     45 H13         1.8727   -2.8844    1.2314 H         1 <0>         0.0823
     46 H14         2.7412   -0.0966    2.1796 H         1 <0>         0.0626
     47 H15         1.8060   -1.2903    3.1426 H         1 <0>         0.0667
     48 H16         4.2286   -1.3791    3.7097 H         1 <0>         0.0653
     49 H17         3.6835   -2.9142    2.9529 H         1 <0>         0.0673
     50 H18         5.0944   -0.6014    1.5088 H         1 <0>         0.0651
     51 H19         5.8511   -2.1580    1.9895 H         1 <0>         0.0718
     52 H20         4.2261   -3.3893    0.5606 H         1 <0>         0.0823
     53 H21         5.1613   -2.1956   -0.4024 H         1 <0>         0.0701
     54 H22         3.8792   -1.1700   -2.5700 H         1 <0>         0.0484
     55 H23         4.5539   -2.7248   -1.9751 H         1 <0>         0.0962
     56 H24         3.8635   -2.8444   -4.3887 H         1 <0>         0.1016
     57 H25         2.9378   -3.9857   -3.3557 H         1 <0>         0.0633
     58 H26        -0.0229   -1.8213   -3.3779 H         1 <0>         0.0952
     59 H27         0.6242   -3.3768   -2.7547 H         1 <0>         0.0614
     60 H28         0.6145   -1.6872   -0.9484 H         1 <0>         0.0827
     61 H29         1.5738   -0.5627   -1.9691 H         1 <0>         0.0694
     62 H30        -2.2042    4.2481    1.1418 H         1 <0>         0.1343
     63 H31        -5.2474    4.7073    1.0373 H         1 <0>         0.0904
     64 H32        -4.3652    3.3191    0.3155 H         1 <0>         0.0849
     65 H33        -5.3534    2.7082    2.5174 H         1 <0>         0.0862
     66 H34        -3.5589    2.6563    2.5759 H         1 <0>         0.0747
     67 H35        -5.3201    4.9873    3.5190 H         1 <0>         0.0706
     68 H36        -4.4901    3.8003    4.5815 H         1 <0>         0.0807
     69 H37        -3.1723    5.9032    4.3829 H         1 <0>         0.0865
     70 H38        -2.2900    4.5150    3.6611 H         1 <0>         0.0743
     71 H39        -2.1840    6.5141    2.1809 H         1 <0>         0.0864
     72 H40        -3.9785    6.5660    2.1225 H         1 <0>         0.0904
     73 H41        -2.1348    6.2368   -0.1978 H         1 <0>         0.4386
@<TRIPOS>BOND
     1    1    2 1
     2    1   34 1
     3    1   35 1
     4    1   36 1
     5    2    3 1
     6    2   28 1
     7    2   73 1
     8    3    4 1
     9    3   37 1
    10    3   38 1
    11    4   10 1
    12    4    5 2
    13    5    6 1
    14    5   39 1
    15    6    7 2
    16    6   40 1
    17    7    8 1
    18    7   12 1
    19    8    9 2
    20    8   10 am
    21   10   11 1
    22   12   13 2
    23   12   14 am
    24   14   15 1
    25   14   41 1
    26   15   16 1
    27   15   42 1
    28   15   43 1
    29   16   21 1
    30   16   17 1
    31   16   22 1
    32   17   18 1
    33   17   44 1
    34   17   45 1
    35   18   19 1
    36   18   46 1
    37   18   47 1
    38   19   20 1
    39   19   48 1
    40   19   49 1
    41   20   21 1
    42   20   50 1
    43   20   51 1
    44   21   52 1
    45   21   53 1
    46   22   27 1
    47   22   23 1
    48   23   24 1
    49   23   54 1
    50   23   55 1
    51   24   25 1
    52   24   56 1
    53   24   57 1
    54   25   26 1
    55   26   27 1
    56   26   58 1
    57   26   59 1
    58   27   60 1
    59   27   61 1
    60   28   33 1
    61   28   29 1
    62   28   62 1
    63   29   30 1
    64   29   63 1
    65   29   64 1
    66   30   31 1
    67   30   65 1
    68   30   66 1
    69   31   32 1
    70   31   67 1
    71   31   68 1
    72   32   33 1
    73   32   69 1
    74   32   70 1
    75   33   71 1
    76   33   72 1
@<TRIPOS>MOLECULE
ZINC24751132
   56    58     0     0     0
SMALL
USER_CHARGES

@<TRIPOS>ATOM
      1 C1         -1.1980   -7.3298   -1.6188 C.3       1 <0>        -0.1173
      2 C2         -1.0195   -6.2603   -2.6654 C.ar      1 <0>        -0.1387
      3 C3         -0.4209   -5.0599   -2.3320 C.ar      1 <0>         0.0094
      4 C4         -0.2570   -4.0787   -3.2918 C.ar      1 <0>        -0.6888
      5 C5         -0.6915   -4.2968   -4.5861 C.ar      1 <0>         0.0078
      6 C6         -1.2898   -5.4963   -4.9218 C.ar      1 <0>        -0.1679
      7 C7         -1.4498   -6.4820   -3.9624 C.ar      1 <0>         0.1596
      8 F1         -2.0303   -7.6569   -4.2905 F         1 <0>        -0.1238
      9 S1          0.5057   -2.5487   -2.8652 S.o2      1 <0>         2.6892
     10 O1          0.1358   -1.6161   -3.8715 O.2       1 <0>        -0.9355
     11 O2          0.2351   -2.3302   -1.4875 O.2       1 <0>        -0.9370
     12 N1          2.1424   -2.7638   -2.9978 N.pl3     1 <0>        -1.0569
     13 C8          2.7885   -3.6958   -2.1934 C.ar      1 <0>         0.1859
     14 C9          2.5065   -3.7520   -0.8312 C.ar      1 <0>        -0.1613
     15 C10         3.1443   -4.6733   -0.0324 C.ar      1 <0>        -0.0241
     16 C11         4.0762   -5.5535   -0.5902 C.ar      1 <0>        -0.1602
     17 C12         4.3572   -5.4946   -1.9583 C.ar      1 <0>        -0.0676
     18 C13         3.7119   -4.5748   -2.7528 C.ar      1 <0>        -0.1368
     19 C14         4.7621   -6.5420    0.2634 C.2       1 <0>         0.5714
     20 O3          4.5171   -6.5919    1.4534 O.2       1 <0>        -0.5080
     21 N2          5.6604   -7.3899   -0.2758 N.am      1 <0>        -0.7498
     22 C15         6.3415   -8.3717    0.5719 C.3       1 <0>         0.0955
     23 C16         7.2054   -9.2856   -0.2994 C.3       1 <0>         0.1245
     24 H1          7.6362  -10.0745    0.3172 H         1 <0>         0.1778
     25 C17         8.3121   -8.4798   -0.9295 C.2       1 <0>        -0.1120
     26 C18         9.5870   -8.4267   -0.5039 C.2       1 <0>        -0.1243
     27 C19        10.2756   -7.5570   -1.3805 C.2       1 <0>        -0.2104
     28 C20         9.3803   -7.1306   -2.2893 C.2       1 <0>         0.0114
     29 O4          8.1940   -7.6973   -2.0146 O.3       1 <0>        -0.1865
     30 N3          6.3757   -9.8855   -1.3528 N.4       1 <0>        -0.3908
     31 C21         7.1803  -10.8415   -2.1251 C.3       1 <0>        -0.0475
     32 C22         5.2378  -10.5849   -0.7411 C.3       1 <0>        -0.0565
     33 H2         -0.3200   -7.9756   -1.6057 H         1 <0>         0.0749
     34 H3         -1.3212   -6.8643   -0.6409 H         1 <0>         0.0801
     35 H4         -2.0819   -7.9231   -1.8527 H         1 <0>         0.0764
     36 H5         -0.0814   -4.8883   -1.3212 H         1 <0>         0.1485
     37 H6         -0.5636   -3.5292   -5.3350 H         1 <0>         0.1548
     38 H7         -1.6294   -5.6663   -5.9328 H         1 <0>         0.1511
     39 H8          2.6502   -2.2395   -3.6366 H         1 <0>         0.4342
     40 H9          1.7867   -3.0715   -0.4009 H         1 <0>         0.1703
     41 H10         2.9254   -4.7161    1.0243 H         1 <0>         0.1492
     42 H11         5.0770   -6.1730   -2.3920 H         1 <0>         0.1232
     43 H12         3.9250   -4.5320   -3.8107 H         1 <0>         0.1401
     44 H13         5.8558   -7.3502   -1.2250 H         1 <0>         0.3957
     45 H14         6.9736   -7.8530    1.2926 H         1 <0>         0.1180
     46 H15         5.6006   -8.9697    1.1026 H         1 <0>         0.1111
     47 H16        10.0044   -8.9480    0.3449 H         1 <0>         0.1632
     48 H17        11.3200   -7.2866   -1.3298 H         1 <0>         0.1648
     49 H18         9.5821   -6.4510   -3.1040 H         1 <0>         0.2193
     50 H19         7.5488  -11.6248   -1.4627 H         1 <0>         0.1283
     51 H20         6.5646  -11.2866   -2.9067 H         1 <0>         0.1299
     52 H21         8.0246  -10.3225   -2.5790 H         1 <0>         0.1228
     53 H22         4.5871   -9.8607   -0.2509 H         1 <0>         0.1269
     54 H23         4.6778  -11.1123   -1.5133 H         1 <0>         0.1326
     55 H24         5.6043  -11.3006   -0.0052 H         1 <0>         0.1311
     56 H25         6.0345   -9.1604   -1.9660 H         1 <0>         0.4228
@<TRIPOS>BOND
     1    1    2 1
     2    1   33 1
     3    1   34 1
     4    1   35 1
     5    2    7 ar
     6    2    3 ar
     7    3    4 ar
     8    3   36 1
     9    4    5 ar
    10    4    9 1
    11    5    6 ar
    12    5   37 1
    13    6    7 ar
    14    6   38 1
    15    7    8 1
    16    9   10 2
    17    9   11 2
    18    9   12 1
    19   12   13 1
    20   12   39 1
    21   13   18 ar
    22   13   14 ar
    23   14   15 ar
    24   14   40 1
    25   15   16 ar
    26   15   41 1
    27   16   17 ar
    28   16   19 1
    29   17   18 ar
    30   17   42 1
    31   18   43 1
    32   19   20 2
    33   19   21 am
    34   21   22 1
    35   21   44 1
    36   22   23 1
    37   22   45 1
    38   22   46 1
    39   23   24 1
    40   23   25 1
    41   23   30 1
    42   25   29 1
    43   25   26 2
    44   26   27 1
    45   26   47 1
    46   27   28 2
    47   27   48 1
    48   28   29 1
    49   28   49 1
    50   30   31 1
    51   30   32 1
    52   30   56 1
    53   31   50 1
    54   31   51 1
    55   31   52 1
    56   32   53 1
    57   32   54 1
    58   32   55 1
@<TRIPOS>MOLECULE
ZINC39672753
   80    83     0     0     0
SMALL
USER_CHARGES

@<TRIPOS>ATOM
      1 C1          1.9324    1.4956   -1.1859 C.3       1 <0>        -0.1552
      2 C2          1.2596    0.1336   -1.3680 C.3       1 <0>        -0.1250
      3 C3          1.8447   -0.5640   -2.5976 C.3       1 <0>        -0.1040
      4 C4          1.1719   -1.9260   -2.7797 C.3       1 <0>        -0.1066
      5 H1          1.2717   -2.5061   -1.8623 H         1 <0>         0.0925
      6 C5         -0.3112   -1.7239   -3.0965 C.3       1 <0>        -0.1429
      7 C6          1.8321   -2.6646   -3.9153 C.2       1 <0>         0.5463
      8 O1          2.3309   -2.0466   -4.8320 O.2       1 <0>        -0.5282
      9 N1          1.8683   -4.0119   -3.9123 N.am      1 <0>        -0.6249
     10 C7          1.2245   -4.9356   -2.9488 C.3       1 <0>         0.1101
     11 C8          0.7067   -6.1051   -3.8157 C.3       1 <0>        -0.1121
     12 H2         -0.3386   -5.9469   -4.0811 H         1 <0>         0.1101
     13 C9          1.5887   -6.0805   -5.0752 C.3       1 <0>        -0.0701
     14 C10         2.5557   -4.9046   -4.8759 C.3       1 <0>         0.1062
     15 C11         0.7320   -5.8466   -6.3158 C.3       1 <0>        -0.1337
     16 C12         1.6235   -5.8831   -7.5603 C.3       1 <0>        -0.0111
     17 N2          2.2965   -7.1850   -7.6441 N.4       1 <0>        -0.5044
     18 C13         3.1897   -7.3622   -6.4928 C.3       1 <0>        -0.0081
     19 C14         2.3645   -7.3879   -5.2032 C.3       1 <0>        -0.1465
     20 C15         0.8690   -7.4126   -3.0840 C.2       1 <0>         0.5168
     21 O2          1.7828   -7.5594   -2.3001 O.2       1 <0>        -0.5262
     22 N3         -0.0011   -8.4187   -3.3008 N.am      1 <0>        -0.7121
     23 C16         0.1567   -9.6897   -2.5895 C.3       1 <0>         0.1277
     24 C17        -0.8771  -10.6936   -3.1036 C.3       1 <0>         0.1020
     25 C18        -0.8011  -11.9752   -2.2714 C.3       1 <0>        -0.1472
     26 C19         0.5996  -12.5790   -2.3915 C.3       1 <0>        -0.1206
     27 C20         0.8904  -12.9050   -3.8578 C.3       1 <0>        -0.1234
     28 C21         0.8144  -11.6233   -4.6900 C.3       1 <0>        -0.1194
     29 C22        -0.5863  -11.0196   -4.5699 C.3       1 <0>        -0.1049
     30 N4         -2.2220  -10.1139   -2.9883 N.3       1 <0>        -0.5260
     31 C23        -2.5263   -9.7622   -1.5936 C.3       1 <0>         0.0096
     32 C24        -3.9092   -9.1086   -1.5279 C.3       1 <0>         0.0650
     33 O3         -4.8790   -9.9995   -2.0856 O.3       1 <0>        -0.3807
     34 C25        -4.6139  -10.3625   -3.4433 C.3       1 <0>         0.0636
     35 C26        -3.2381  -11.0289   -3.5284 C.3       1 <0>         0.0110
     36 H3          3.0046    1.3557   -1.0484 H         1 <0>         0.0547
     37 H4          1.7564    2.1089   -2.0697 H         1 <0>         0.0558
     38 H5          1.5155    1.9926   -0.3100 H         1 <0>         0.0578
     39 H6          1.4355   -0.4796   -0.4842 H         1 <0>         0.0624
     40 H7          0.1874    0.2735   -1.5056 H         1 <0>         0.0662
     41 H8          1.6688    0.0493   -3.4814 H         1 <0>         0.0758
     42 H9          2.9169   -0.7039   -2.4600 H         1 <0>         0.0657
     43 H10        -0.4123   -1.0524   -3.9491 H         1 <0>         0.0662
     44 H11        -0.7660   -2.6853   -3.3352 H         1 <0>         0.0547
     45 H12        -0.8118   -1.2900   -2.2309 H         1 <0>         0.0765
     46 H13         1.9531   -5.2949   -2.2220 H         1 <0>         0.0992
     47 H14         0.3951   -4.4405   -2.4438 H         1 <0>         0.0935
     48 H15         2.7241   -4.3873   -5.8204 H         1 <0>         0.0881
     49 H16         3.4998   -5.2575   -4.4608 H         1 <0>         0.0829
     50 H17        -0.0253   -6.6273   -6.3876 H         1 <0>         0.0960
     51 H18         0.2464   -4.8733   -6.2444 H         1 <0>         0.1174
     52 H19         1.0117   -5.7327   -8.4498 H         1 <0>         0.1395
     53 H20         2.3703   -5.0918   -7.4953 H         1 <0>         0.1341
     54 H21         1.6052   -7.9199   -7.6479 H         1 <0>         0.4270
     55 H22         3.7323   -8.3020   -6.5955 H         1 <0>         0.1388
     56 H23         3.8995   -6.5359   -6.4534 H         1 <0>         0.1331
     57 H24         3.0301   -7.5013   -4.3475 H         1 <0>         0.1268
     58 H25         1.6659   -8.2240   -5.2348 H         1 <0>         0.0968
     59 H26        -0.7319   -8.3013   -3.9277 H         1 <0>         0.4075
     60 H27         1.1596  -10.0804   -2.7619 H         1 <0>         0.0854
     61 H28         0.0078   -9.5294   -1.5217 H         1 <0>         0.0699
     62 H29        -1.0083  -11.7430   -1.2268 H         1 <0>         0.0702
     63 H30        -1.5377  -12.6904   -2.6376 H         1 <0>         0.0739
     64 H31         1.3361  -11.8638   -2.0253 H         1 <0>         0.0656
     65 H32         0.6537  -13.4920   -1.7986 H         1 <0>         0.0689
     66 H33         1.8883  -13.3351   -3.9433 H         1 <0>         0.0663
     67 H34         0.1539  -13.6202   -4.2240 H         1 <0>         0.0649
     68 H35         1.5510  -10.9081   -4.3237 H         1 <0>         0.0625
     69 H36         1.0216  -11.8556   -5.7346 H         1 <0>         0.0639
     70 H37        -1.3228  -11.7348   -4.9361 H         1 <0>         0.0720
     71 H38        -0.6404  -10.1065   -5.1627 H         1 <0>         0.0638
     72 H39        -2.5205  -10.6639   -0.9813 H         1 <0>         0.0521
     73 H40        -1.7759   -9.0643   -1.2222 H         1 <0>         0.0875
     74 H41        -4.1633   -8.8980   -0.4891 H         1 <0>         0.0996
     75 H42        -3.8997   -8.1787   -2.0967 H         1 <0>         0.0573
     76 H43        -5.3776  -11.0589   -3.7896 H         1 <0>         0.0997
     77 H44        -4.6249   -9.4692   -4.0677 H         1 <0>         0.0578
     78 H45        -3.0073  -11.2556   -4.5692 H         1 <0>         0.0895
     79 H46        -3.2437  -11.9508   -2.9469 H         1 <0>         0.0516
     80 H47         2.8353   -7.2293   -8.4960 H         1 <0>         0.4340
@<TRIPOS>BOND
     1    1    2 1
     2    1   36 1
     3    1   37 1
     4    1   38 1
     5    2    3 1
     6    2   39 1
     7    2   40 1
     8    3    4 1
     9    3   41 1
    10    3   42 1
    11    4    5 1
    12    4    6 1
    13    4    7 1
    14    6   43 1
    15    6   44 1
    16    6   45 1
    17    7    8 2
    18    7    9 am
    19    9   14 1
    20    9   10 1
    21   10   11 1
    22   10   46 1
    23   10   47 1
    24   11   12 1
    25   11   13 1
    26   11   20 1
    27   13   19 1
    28   13   14 1
    29   13   15 1
    30   14   48 1
    31   14   49 1
    32   15   16 1
    33   15   50 1
    34   15   51 1
    35   16   17 1
    36   16   52 1
    37   16   53 1
    38   17   18 1
    39   17   54 1
    40   17   80 1
    41   18   19 1
    42   18   55 1
    43   18   56 1
    44   19   57 1
    45   19   58 1
    46   20   21 2
    47   20   22 am
    48   22   23 1
    49   22   59 1
    50   23   24 1
    51   23   60 1
    52   23   61 1
    53   24   29 1
    54   24   25 1
    55   24   30 1
    56   25   26 1
    57   25   62 1
    58   25   63 1
    59   26   27 1
    60   26   64 1
    61   26   65 1
    62   27   28 1
    63   27   66 1
    64   27   67 1
    65   28   29 1
    66   28   68 1
    67   28   69 1
    68   29   70 1
    69   29   71 1
    70   30   35 1
    71   30   31 1
    72   31   32 1
    73   31   72 1
    74   31   73 1
    75   32   33 1
    76   32   74 1
    77   32   75 1
    78   33   34 1
    79   34   35 1
    80   34   76 1
    81   34   77 1
    82   35   78 1
    83   35   79 1
@<TRIPOS>MOLECULE
ZINC57712573
   64    68     0     0     0
SMALL
USER_CHARGES

@<TRIPOS>ATOM
      1 C1         -0.0584    1.5162    0.0299 C.3       1 <0>        -0.1554
      2 C2         -0.0384   -0.0137    0.0248 C.3       1 <0>         0.0517
      3 O1          0.6623   -0.4848    1.1777 O.3       1 <0>        -0.3079
      4 C3          0.7716   -1.8299    1.3256 C.ar      1 <0>         0.1966
      5 C4          0.2154   -2.6780    0.3687 C.ar      1 <0>        -0.2341
      6 C5          0.3159   -4.0319    0.5008 C.ar      1 <0>        -0.0071
      7 C6          0.9827   -4.5755    1.6055 C.ar      1 <0>        -0.1798
      8 C7          1.1077   -6.0228    1.7751 C.2       1 <0>         0.0280
      9 C8          1.7649   -6.4938    2.8652 C.2       1 <0>        -0.2269
     10 C9          2.3109   -5.5986    3.8074 C.2       1 <0>         0.5457
     11 O2          2.8969   -6.0434    4.7794 O.2       1 <0>        -0.5302
     12 N1          2.2021   -4.2665    3.6609 N.am      1 <0>        -0.6292
     13 H1          2.5899   -3.6789    4.3281 H         1 <0>         0.4187
     14 C10         1.5467   -3.7237    2.5757 C.ar      1 <0>         0.2327
     15 C11         1.4391   -2.3475    2.4220 C.ar      1 <0>        -0.2102
     16 C12         1.9112   -7.9797    3.0693 C.3       1 <0>         0.1913
     17 N2          3.2011   -8.4216    2.5334 N.pl3     1 <0>        -0.7427
     18 C13         3.5648   -9.7715    2.6084 C.ar      1 <0>         0.1866
     19 C14         2.7005  -10.6924    3.1856 C.ar      1 <0>        -0.1519
     20 C15         3.0595  -12.0238    3.2599 C.ar      1 <0>        -0.1379
     21 C16         4.2845  -12.4417    2.7571 C.ar      1 <0>         0.1415
     22 C17         5.1486  -11.5209    2.1795 C.ar      1 <0>        -0.1367
     23 C18         4.7874  -10.1904    2.1004 C.ar      1 <0>        -0.1491
     24 N3          4.6486  -13.7914    2.8329 N.pl3     1 <0>        -0.6379
     25 C19         5.8851  -14.2693    2.1984 C.3       1 <0>         0.1101
     26 C20         6.7374  -14.9783    3.2582 C.3       1 <0>         0.0918
     27 N4          5.8903  -15.9425    3.9741 N.pl3     1 <0>        -0.5826
     28 C21         4.6538  -15.4645    4.6086 C.3       1 <0>         0.0811
     29 C22         3.8043  -14.7546    3.5536 C.3       1 <0>         0.1123
     30 C23         6.2518  -17.2825    4.0494 C.ar      1 <0>         0.4442
     31 C24         7.4898  -17.6910    3.5631 C.ar      1 <0>        -0.2012
     32 C25         7.8366  -19.0274    3.6444 C.ar      1 <0>         0.0376
     33 C26         6.9304  -19.9140    4.2113 C.ar      1 <0>        -0.1730
     34 C27         5.7195  -19.4398    4.6736 C.ar      1 <0>         0.1467
     35 N5          5.4173  -18.1580    4.5880 N.ar      1 <0>        -0.5091
     36 H2          0.9643    1.8929    0.0126 H         1 <0>         0.0685
     37 H3         -0.5929    1.8755   -0.8495 H         1 <0>         0.0831
     38 H4         -0.5607    1.8700    0.9302 H         1 <0>         0.0687
     39 H5         -1.0611   -0.3905    0.0421 H         1 <0>         0.0682
     40 H6          0.4640   -0.3675   -0.8755 H         1 <0>         0.0680
     41 H7         -0.2994   -2.2596   -0.4835 H         1 <0>         0.1390
     42 H8         -0.1177   -4.6826   -0.2442 H         1 <0>         0.1415
     43 H9          0.6859   -6.7019    1.0489 H         1 <0>         0.1471
     44 H10         1.8708   -1.6843    3.1569 H         1 <0>         0.1442
     45 H11         1.8633   -8.2066    4.1344 H         1 <0>         0.0750
     46 H12         1.1052   -8.4988    2.5507 H         1 <0>         0.0698
     47 H13         3.8031   -7.7790    2.1267 H         1 <0>         0.3989
     48 H14         1.7478  -10.3674    3.5767 H         1 <0>         0.1236
     49 H15         2.3876  -12.7399    3.7095 H         1 <0>         0.1192
     50 H16         6.1014  -11.8459    1.7884 H         1 <0>         0.1209
     51 H17         5.4577   -9.4748    1.6475 H         1 <0>         0.1223
     52 H18         5.6395  -14.9684    1.3989 H         1 <0>         0.0696
     53 H19         6.4378  -13.4230    1.7906 H         1 <0>         0.1101
     54 H20         7.5608  -15.5035    2.7741 H         1 <0>         0.1081
     55 H21         7.1314  -14.2446    3.9615 H         1 <0>         0.1001
     56 H22         4.1011  -16.3109    5.0163 H         1 <0>         0.0834
     57 H23         4.8994  -14.7655    5.4080 H         1 <0>         0.1056
     58 H24         2.9832  -14.2286    4.0406 H         1 <0>         0.1092
     59 H25         3.4072  -15.4889    2.8528 H         1 <0>         0.0674
     60 H26         8.1705  -16.9744    3.1279 H         1 <0>         0.1783
     61 H27         8.7905  -19.3737    3.2749 H         1 <0>         0.1738
     62 H28         7.1707  -20.9641    4.2893 H         1 <0>         0.1799
     63 H29         5.0117  -20.1259    5.1149 H         1 <0>         0.2054
     64 H30         4.5610  -17.8503    4.9242 H         1 <0>         0.4372
@<TRIPOS>BOND
     1    1    2 1
     2    1   36 1
     3    1   37 1
     4    1   38 1
     5    2    3 1
     6    2   39 1
     7    2   40 1
     8    3    4 1
     9    4   15 ar
    10    4    5 ar
    11    5    6 ar
    12    5   41 1
    13    6    7 ar
    14    6   42 1
    15    7   14 ar
    16    7    8 1
    17    8    9 2
    18    8   43 1
    19    9   10 1
    20    9   16 1
    21   10   11 2
    22   10   12 am
    23   12   13 1
    24   12   14 1
    25   14   15 ar
    26   15   44 1
    27   16   17 1
    28   16   45 1
    29   16   46 1
    30   17   18 1
    31   17   47 1
    32   18   23 ar
    33   18   19 ar
    34   19   20 ar
    35   19   48 1
    36   20   21 ar
    37   20   49 1
    38   21   22 ar
    39   21   24 1
    40   22   23 ar
    41   22   50 1
    42   23   51 1
    43   24   29 1
    44   24   25 1
    45   25   26 1
    46   25   52 1
    47   25   53 1
    48   26   27 1
    49   26   54 1
    50   26   55 1
    51   27   28 1
    52   27   30 1
    53   28   29 1
    54   28   56 1
    55   28   57 1
    56   29   58 1
    57   29   59 1
    58   30   35 ar
    59   30   31 ar
    60   31   32 ar
    61   31   60 1
    62   32   33 ar
    63   32   61 1
    64   33   34 ar
    65   33   62 1
    66   34   35 ar
    67   34   63 1
    68   35   64 1
@<TRIPOS>MOLECULE
ZINC63557781
   56    60     0     0     0
SMALL
USER_CHARGES

@<TRIPOS>ATOM
      1 C1         -0.0173    1.4248    0.0099 C.3       1 <0>         0.0263
      2 O1          0.0021   -0.0041    0.0020 O.3       1 <0>        -0.3122
      3 C2          0.6062   -0.6075   -1.0564 C.ar      1 <0>         0.1118
      4 C3          1.1767    0.1497   -2.0688 C.ar      1 <0>        -0.1635
      5 C4          1.7896   -0.4506   -3.1438 C.ar      1 <0>        -0.1080
      6 C5          1.8606   -1.8504   -3.2554 C.ar      1 <0>         0.1301
      7 C6          1.2777   -2.5877   -2.2204 C.ar      1 <0>        -0.0983
      8 C7          0.6675   -1.9926   -1.1393 C.ar      1 <0>        -0.0778
      9 S1          1.5364   -4.2915   -2.6601 S.3       1 <0>        -0.1161
     10 C8          2.4317   -4.0196   -4.2415 C.3       1 <0>         0.4188
     11 H1          3.4408   -4.4291   -4.1961 H         1 <0>         0.1374
     12 N1          2.4597   -2.5521   -4.3041 N.pl3     1 <0>        -0.7405
     13 N2          1.6883   -4.5824   -5.3714 N.am      1 <0>        -0.7220
     14 C9          1.6909   -5.9133   -5.5840 C.2       1 <0>         0.5351
     15 O2          2.3088   -6.6450   -4.8399 O.2       1 <0>        -0.5157
     16 C10         0.9262   -6.4922   -6.7464 C.3       1 <0>        -0.1231
     17 H2         -0.1333   -6.2461   -6.6750 H         1 <0>         0.1272
     18 C11         1.5166   -6.0110   -8.0920 C.3       1 <0>        -0.1473
     19 C12         1.3952   -7.2136   -9.0017 C.2       1 <0>         0.5252
     20 O3          1.4828   -7.1816  -10.2109 O.2       1 <0>        -0.5146
     21 N3          1.1764   -8.3229   -8.2748 N.am      1 <0>        -0.6227
     22 C13         1.1338   -8.0202   -6.8387 C.3       1 <0>         0.1157
     23 C14         1.0020   -9.6621   -8.8424 C.3       1 <0>         0.1353
     24 C15         2.3636  -10.3513   -8.9512 C.3       1 <0>        -0.1165
     25 C16         2.1842  -11.7289   -9.5352 C.2       1 <0>         0.0782
     26 C17         2.3106  -12.0843  -10.8339 C.ar      1 <0>        -0.1539
     27 C18         2.6401  -11.3233  -12.0450 C.ar      1 <0>        -0.0587
     28 C19         2.6928  -11.9707  -13.2331 C.ar      1 <0>         0.0797
     29 C20         2.4407  -13.3481  -13.3340 C.ar      1 <0>         0.0215
     30 C21         2.1316  -14.1123  -12.2656 C.ar      1 <0>        -0.1758
     31 C22         2.0493  -13.5353  -10.9680 C.ar      1 <0>         0.3248
     32 N4          1.7720  -14.0565   -9.7975 N.pl3     1 <0>        -0.5774
     33 C23         1.8327  -12.9951   -8.7865 C.3       1 <0>         0.0602
     34 F1          2.9953  -11.2732  -14.3500 F         1 <0>        -0.1112
     35 H3          1.0053    1.8021    0.0021 H         1 <0>         0.0573
     36 H4         -0.5445    1.7859   -0.8732 H         1 <0>         0.0568
     37 H5         -0.5275    1.7763    0.9067 H         1 <0>         0.1039
     38 H6          1.1387    1.2275   -2.0123 H         1 <0>         0.1366
     39 H7          2.2245    0.1651   -3.9173 H         1 <0>         0.1281
     40 H8          0.2339   -2.6013   -0.3596 H         1 <0>         0.1405
     41 H9          2.8778   -2.0880   -5.0461 H         1 <0>         0.4147
     42 H10         1.1941   -3.9972   -5.9666 H         1 <0>         0.4070
     43 H11         0.9381   -5.1751   -8.4853 H         1 <0>         0.1181
     44 H12         2.5624   -5.7286   -7.9705 H         1 <0>         0.1147
     45 H13         2.0746   -8.3023   -6.3659 H         1 <0>         0.0979
     46 H14         0.3020   -8.5431   -6.3668 H         1 <0>         0.0933
     47 H15         0.3486  -10.2484   -8.1963 H         1 <0>         0.0940
     48 H16         0.5554   -9.5813   -9.8335 H         1 <0>         0.0957
     49 H17         3.0170   -9.7650   -9.5974 H         1 <0>         0.1141
     50 H18         2.8102  -10.4321   -7.9602 H         1 <0>         0.1189
     51 H19         2.8371  -10.2629  -11.9894 H         1 <0>         0.1732
     52 H20         2.4960  -13.8150  -14.3063 H         1 <0>         0.1745
     53 H21         1.9457  -15.1681  -12.3965 H         1 <0>         0.1724
     54 H22         2.6017  -13.2204   -8.0476 H         1 <0>         0.1798
     55 H23         0.8634  -12.8870   -8.2999 H         1 <0>         0.1782
     56 H24         1.5651  -14.9889   -9.6277 H         1 <0>         0.4582
@<TRIPOS>BOND
     1    1    2 1
     2    1   35 1
     3    1   36 1
     4    1   37 1
     5    2    3 1
     6    3    8 ar
     7    3    4 ar
     8    4    5 ar
     9    4   38 1
    10    5    6 ar
    11    5   39 1
    12    6   12 1
    13    6    7 ar
    14    7    8 ar
    15    7    9 1
    16    8   40 1
    17    9   10 1
    18   10   11 1
    19   10   12 1
    20   10   13 1
    21   12   41 1
    22   13   14 am
    23   13   42 1
    24   14   15 2
    25   14   16 1
    26   16   17 1
    27   16   22 1
    28   16   18 1
    29   18   19 1
    30   18   43 1
    31   18   44 1
    32   19   20 2
    33   19   21 am
    34   21   22 1
    35   21   23 1
    36   22   45 1
    37   22   46 1
    38   23   24 1
    39   23   47 1
    40   23   48 1
    41   24   25 1
    42   24   49 1
    43   24   50 1
    44   25   33 1
    45   25   26 2
    46   26   31 ar
    47   26   27 ar
    48   27   28 ar
    49   27   51 1
    50   28   29 ar
    51   28   34 1
    52   29   30 ar
    53   29   52 1
    54   30   31 ar
    55   30   53 1
    56   31   32 2
    57   32   33 1
    58   32   56 1
    59   33   54 1
    60   33   55 1
@<TRIPOS>MOLECULE
ZINC12208693
   61    64     0     0     0
SMALL
USER_CHARGES
N-[(1S)-1-[7-[(2-ethoxyphenyl)methyl]-5,6,8,9-tetrahydro-[1,2,4]triazolo[4,5-d][1,4]diazepin-3-yl]ethyl]-2,5-difluoro-benzamide
@<TRIPOS>ATOM
      1 C1         -3.9044   -1.9592    0.6566 C.3       1 <0>        -0.1560
      2 C2         -3.5160   -0.7749    1.5439 C.3       1 <0>         0.0534
      3 O1         -2.3390   -0.1548    1.0224 O.3       1 <0>        -0.3295
      4 C3         -1.8574    0.9214    1.6984 C.ar      1 <0>         0.1538
      5 C4         -2.5021    1.3687    2.8427 C.ar      1 <0>        -0.2019
      6 C5         -2.0134    2.4656    3.5252 C.ar      1 <0>        -0.0411
      7 C6         -0.8804    3.1155    3.0711 C.ar      1 <0>        -0.1481
      8 C7         -0.2338    2.6691    1.9337 C.ar      1 <0>        -0.0534
      9 C8         -0.7181    1.5718    1.2479 C.ar      1 <0>        -0.1980
     10 C9         -0.0127    1.0858    0.0080 C.3       1 <0>         0.0535
     11 C10        -0.6401    3.0308   -1.2831 C.3       1 <0>        -0.0089
     12 C11        -0.8888    3.4628   -2.7317 C.3       1 <0>        -0.0508
     13 C12         0.4233    3.4578   -3.4728 C.2       1 <0>         0.1521
     14 N1          0.8943    4.3763   -4.2643 N.2       1 <0>        -0.2489
     15 N2          2.0355    4.0007   -4.7287 N.2       1 <0>        -0.2664
     16 C13         2.3435    2.8259   -4.2451 C.2       1 <0>         0.1903
     17 N3          1.3370    2.4573   -3.4245 N.pl3     1 <0>        -0.4769
     18 C14         1.2386    1.2405   -2.6183 C.3       1 <0>         0.0820
     19 C15        -0.2384    0.9031   -2.3941 C.3       1 <0>        -0.0240
     20 C16         3.5882    2.0319   -4.5473 C.3       1 <0>         0.2366
     21 H1          3.4496    1.0010   -4.2215 H         1 <0>         0.1079
     22 C17         4.7773    2.6457   -3.8055 C.3       1 <0>        -0.1631
     23 N4          3.8459    2.0579   -5.9892 N.am      1 <0>        -0.7188
     24 C18         4.5522    1.0652   -6.5656 C.2       1 <0>         0.5713
     25 O2          4.9754    0.1482   -5.8889 O.2       1 <0>        -0.5123
     26 C19         4.8120    1.0915   -8.0193 C.ar      1 <0>        -0.1546
     27 C20         4.3274    2.1433   -8.7997 C.ar      1 <0>        -0.0936
     28 C21         4.5739    2.1616  -10.1581 C.ar      1 <0>         0.0878
     29 C22         5.3012    1.1390  -10.7480 C.ar      1 <0>        -0.0892
     30 C23         5.7836    0.0947   -9.9824 C.ar      1 <0>        -0.1309
     31 C24         5.5492    0.0664   -8.6196 C.ar      1 <0>         0.1560
     32 F1          6.0269   -0.9519   -7.8712 F         1 <0>        -0.1074
     33 F2          4.1056    3.1785  -10.9143 F         1 <0>        -0.1258
     34 H2         -4.8022   -2.4323    1.0544 H         1 <0>         0.0888
     35 H3         -4.0980   -1.6062   -0.3563 H         1 <0>         0.0661
     36 H4         -3.0895   -2.6830    0.6395 H         1 <0>         0.0699
     37 H5         -3.3224   -1.1279    2.5568 H         1 <0>         0.0728
     38 H6         -4.3309   -0.0511    1.5610 H         1 <0>         0.0714
     39 H7         -3.3872    0.8616    3.1976 H         1 <0>         0.1410
     40 H8         -2.5168    2.8162    4.4141 H         1 <0>         0.1397
     41 H9         -0.5003    3.9734    3.6058 H         1 <0>         0.1391
     42 H10         0.6509    3.1784    1.5810 H         1 <0>         0.1370
     43 H11         0.0021   -0.0041    0.0020 H         1 <0>         0.1424
     44 H12         1.0099    1.4631    0.0003 H         1 <0>         0.1352
     45 H13        -1.3917    3.4826   -0.6358 H         1 <0>         0.1465
     46 H14         0.3512    3.3601   -0.9715 H         1 <0>         0.1334
     47 H15        -1.5794    2.7663   -3.2071 H         1 <0>         0.1128
     48 H16        -1.3124    4.4670   -2.7458 H         1 <0>         0.1484
     49 H17         1.7250    0.4170   -3.1411 H         1 <0>         0.1430
     50 H18         1.7257    1.4006   -1.6564 H         1 <0>         0.1138
     51 H19        -0.3507   -0.1753   -2.2819 H         1 <0>         0.1590
     52 H20        -0.8212    1.2397   -3.2516 H         1 <0>         0.1447
     53 H21         4.5855    2.6263   -2.7327 H         1 <0>         0.0683
     54 H22         5.6776    2.0714   -4.0241 H         1 <0>         0.0850
     55 H23         4.9159    3.6766   -4.1313 H         1 <0>         0.0765
     56 H24         3.5082    2.7896   -6.5291 H         1 <0>         0.4124
     57 H25         3.7613    2.9409   -8.3416 H         1 <0>         0.1485
     58 H26         5.4913    1.1587  -11.8109 H         1 <0>         0.1569
     59 H27         6.3494   -0.6985  -10.4484 H         1 <0>         0.1592
     60 N5         -0.7574    1.5606   -1.1721 N.4       1 <0>        -0.3955
     61 H28        -1.7483    1.3157   -1.0607 H         1 <0>         0.4388
@<TRIPOS>BOND
     1    1    2 1
     2    1   34 1
     3    1   35 1
     4    1   36 1
     5    2    3 1
     6    2   37 1
     7    2   38 1
     8    3    4 1
     9    4    9 ar
    10    4    5 ar
    11    5    6 ar
    12    5   39 1
    13    6    7 ar
    14    6   40 1
    15    7    8 ar
    16    7   41 1
    17    8    9 ar
    18    8   42 1
    19    9   10 1
    20   10   43 1
    21   10   44 1
    22   10   60 1
    23   11   12 1
    24   11   45 1
    25   11   46 1
    26   11   60 1
    27   12   13 1
    28   12   47 1
    29   12   48 1
    30   13   17 1
    31   13   14 2
    32   14   15 1
    33   15   16 2
    34   16   17 1
    35   16   20 1
    36   17   18 1
    37   18   19 1
    38   18   49 1
    39   18   50 1
    40   19   51 1
    41   19   52 1
    42   19   60 1
    43   20   21 1
    44   20   22 1
    45   20   23 1
    46   22   53 1
    47   22   54 1
    48   22   55 1
    49   23   24 am
    50   23   56 1
    51   24   25 2
    52   24   26 1
    53   26   31 ar
    54   26   27 ar
    55   27   28 ar
    56   27   57 1
    57   28   29 ar
    58   28   33 1
    59   29   30 ar
    60   29   58 1
    61   30   31 ar
    62   30   59 1
    63   31   32 1
    64   60   61 1
@<TRIPOS>MOLECULE
ZINC21917911
   64    67     0     0     0
SMALL
USER_CHARGES
N-[(2R)-2-(4-methoxyphenyl)-2-(1-piperidyl)ethyl]-4-(2-oxo-1,3-benzoxazol-3-yl)butanamide
@<TRIPOS>ATOM
      1 C1          9.7358    1.6201  -10.8667 C.3       1 <0>         0.0170
      2 O1         10.7184    1.0173  -10.0222 O.3       1 <0>        -0.3057
      3 C2         10.4028    0.8825   -8.7072 C.ar      1 <0>         0.1690
      4 C3         11.3102    0.3057   -7.8305 C.ar      1 <0>        -0.1475
      5 C4         10.9869    0.1694   -6.4944 C.ar      1 <0>        -0.0426
      6 C5          9.7599    0.6067   -6.0307 C.ar      1 <0>        -0.1922
      7 C6          8.8516    1.1768   -6.9035 C.ar      1 <0>        -0.0644
      8 C7          9.1726    1.3209   -8.2394 C.ar      1 <0>        -0.2056
      9 C8          9.4096    0.4563   -4.5727 C.3       1 <0>         0.0845
     10 H1         10.1836   -0.1373   -4.0641 H         1 <0>         0.1484
     11 C9          8.0372   -0.2077   -4.4438 C.3       1 <0>         0.1029
     12 N1          7.6438   -0.2459   -3.0332 N.am      1 <0>        -0.7636
     13 C10         6.4632   -0.7899   -2.6774 C.2       1 <0>         0.5222
     14 O2          5.7265   -1.2480   -3.5250 O.2       1 <0>        -0.5115
     15 C11         6.0584   -0.8292   -1.2263 C.3       1 <0>        -0.1378
     16 C12         4.6861   -1.4932   -1.0974 C.3       1 <0>        -0.1301
     17 C13         4.2752   -1.5331    0.3759 C.3       1 <0>         0.1308
     18 N2          2.9611   -2.1689    0.4993 N.am      1 <0>        -0.5470
     19 C14         1.7255   -1.5235    0.4580 C.ar      1 <0>         0.0675
     20 C15         1.3484   -0.1989    0.3020 C.ar      1 <0>        -0.1025
     21 C16         0.0090    0.1389    0.3032 C.ar      1 <0>        -0.0967
     22 C17        -0.9557   -0.8413    0.4596 C.ar      1 <0>        -0.1044
     23 C18        -0.5872   -2.1627    0.6206 C.ar      1 <0>        -0.0753
     24 C19         0.7542   -2.5118    0.6157 C.ar      1 <0>         0.0352
     25 O3          1.4018   -3.6957    0.7449 O.3       1 <0>        -0.2339
     26 C20         2.7254   -3.4843    0.6744 C.2       1 <0>         0.6361
     27 O4          3.5795   -4.3459    0.7564 O.2       1 <0>        -0.4830
     28 N3          9.3742    1.7809   -3.9385 N.4       1 <0>        -0.3924
     29 C21         8.4036    2.6580   -4.6054 C.3       1 <0>        -0.0239
     30 C22         8.2876    3.9737   -3.8325 C.3       1 <0>        -0.1427
     31 C23         9.6604    4.6498   -3.7765 C.3       1 <0>        -0.1403
     32 C24        10.6637    3.6966   -3.1212 C.3       1 <0>        -0.1447
     33 C25        10.7107    2.3889   -3.9148 C.3       1 <0>        -0.0055
     34 H2         10.1173    1.6673  -11.8973 H         1 <0>         0.1138
     35 H3          9.5192    2.6375  -10.5089 H         1 <0>         0.0626
     36 H4          8.8145    1.0195  -10.8439 H         1 <0>         0.0643
     37 H5         12.2687   -0.0361   -8.1922 H         1 <0>         0.1456
     38 H6         11.6929   -0.2796   -5.8115 H         1 <0>         0.1399
     39 H7          7.8920    1.5133   -6.5398 H         1 <0>         0.1326
     40 H8          8.4643    1.7699   -8.9200 H         1 <0>         0.1418
     41 H9          7.2956    0.3692   -5.0158 H         1 <0>         0.0935
     42 H10         8.0875   -1.2333   -4.8383 H         1 <0>         0.1139
     43 H11         8.3120    0.1694   -2.2644 H         1 <0>         0.4104
     44 H12         6.8000   -1.4061   -0.6543 H         1 <0>         0.1067
     45 H13         6.0080    0.1964   -0.8318 H         1 <0>         0.1028
     46 H14         3.9445   -0.9163   -1.6694 H         1 <0>         0.0809
     47 H15         4.7365   -2.5188   -1.4919 H         1 <0>         0.0834
     48 H16         5.0168   -2.1100    0.9479 H         1 <0>         0.1015
     49 H17         4.2249   -0.5075    0.7704 H         1 <0>         0.0965
     50 H18         2.0998    0.5673    0.1801 H         1 <0>         0.1323
     51 H19        -0.2863    1.1705    0.1814 H         1 <0>         0.1410
     52 H20        -2.0013   -0.5710    0.4597 H         1 <0>         0.1454
     53 H21        -1.3434   -2.9233    0.7471 H         1 <0>         0.1445
     54 H22         8.7410    2.8648   -5.6318 H         1 <0>         0.1359
     55 H23         7.4218    2.1629   -4.6350 H         1 <0>         0.1287
     56 H24         7.5713    4.6357   -4.3411 H         1 <0>         0.1111
     57 H25         7.9358    3.7689   -2.8106 H         1 <0>         0.0868
     58 H26         9.9922    4.8910   -4.7972 H         1 <0>         0.0808
     59 H27         9.5897    5.5750   -3.1858 H         1 <0>         0.0948
     60 H28        11.6610    4.1607   -3.1163 H         1 <0>         0.1130
     61 H29        10.3508    3.4891   -2.0873 H         1 <0>         0.0879
     62 H30        11.4201    1.6965   -3.4380 H         1 <0>         0.1310
     63 H31        11.0372    2.5969   -4.9444 H         1 <0>         0.1289
     64 H32         9.0469    1.6500   -2.8965 H         1 <0>         0.4276
@<TRIPOS>BOND
     1    1    2 1
     2    1   34 1
     3    1   35 1
     4    1   36 1
     5    2    3 1
     6    3    8 ar
     7    3    4 ar
     8    4    5 ar
     9    4   37 1
    10    5    6 ar
    11    5   38 1
    12    6    7 ar
    13    6    9 1
    14    7    8 ar
    15    7   39 1
    16    8   40 1
    17    9   10 1
    18    9   11 1
    19    9   28 1
    20   11   12 1
    21   11   41 1
    22   11   42 1
    23   12   13 am
    24   12   43 1
    25   13   14 2
    26   13   15 1
    27   15   16 1
    28   15   44 1
    29   15   45 1
    30   16   17 1
    31   16   46 1
    32   16   47 1
    33   17   18 1
    34   17   48 1
    35   17   49 1
    36   18   26 am
    37   18   19 1
    38   19   24 ar
    39   19   20 ar
    40   20   21 ar
    41   20   50 1
    42   21   22 ar
    43   21   51 1
    44   22   23 ar
    45   22   52 1
    46   23   24 ar
    47   23   53 1
    48   24   25 1
    49   25   26 1
    50   26   27 2
    51   28   33 1
    52   28   29 1
    53   28   64 1
    54   29   30 1
    55   29   54 1
    56   29   55 1
    57   30   31 1
    58   30   56 1
    59   30   57 1
    60   31   32 1
    61   31   58 1
    62   31   59 1
    63   32   33 1
    64   32   60 1
    65   32   61 1
    66   33   62 1
    67   33   63 1
@<TRIPOS>MOLECULE
ZINC39484878
   66    69     0     0     0
SMALL
USER_CHARGES

@<TRIPOS>ATOM
      1 C1          2.7527   -3.6430    3.1807 C.3       1 <0>         0.0227
      2 O1          1.8494   -3.3633    2.1094 O.3       1 <0>        -0.3173
      3 C2          0.8556   -4.2638    1.8893 C.ar      1 <0>         0.1633
      4 C3          0.7486   -5.3906    2.6918 C.ar      1 <0>        -0.1907
      5 C4         -0.2626   -6.3041    2.4664 C.ar      1 <0>        -0.0516
      6 C5         -1.1679   -6.0963    1.4419 C.ar      1 <0>        -0.1344
      7 C6         -1.0632   -4.9747    0.6406 C.ar      1 <0>        -0.0965
      8 C7         -0.0569   -4.0550    0.8656 C.ar      1 <0>        -0.1721
      9 C8          0.0530   -2.8293   -0.0042 C.3       1 <0>         0.0864
     10 H1          0.4050   -1.9893    0.5945 H         1 <0>         0.1613
     11 C9          1.0430   -3.0968   -1.1397 C.3       1 <0>         0.1048
     12 N1          0.5106   -4.1437   -2.0153 N.am      1 <0>        -0.7490
     13 C10         1.2580   -4.6160   -3.0326 C.2       1 <0>         0.5226
     14 O2          2.3713   -4.1743   -3.2230 O.2       1 <0>        -0.5107
     15 C11         0.7103   -5.6929   -3.9333 C.3       1 <0>        -0.1287
     16 C12         1.7513   -6.0459   -4.9975 C.3       1 <0>        -0.1127
     17 C13         1.2036   -7.1228   -5.8983 C.2       1 <0>         0.5543
     18 O3          0.0900   -7.5645   -5.7078 O.2       1 <0>        -0.5279
     19 N2          1.9510   -7.5951   -6.9156 N.am      1 <0>        -0.4703
     20 C14         1.5379   -8.6364   -7.8698 C.3       1 <0>         0.0755
     21 C15         2.7588   -8.7790   -8.8001 C.3       1 <0>        -0.1361
     22 C16         3.7513   -7.7772   -8.2546 C.2       1 <0>         0.1544
     23 N3          3.2388   -7.1729   -7.2392 N.2       1 <0>        -0.2465
     24 C17         5.0969   -7.5268   -8.8041 C.ar      1 <0>        -0.0450
     25 C18         5.5427   -8.2385   -9.9203 C.ar      1 <0>        -0.0858
     26 C19         6.8023   -7.9992  -10.4287 C.ar      1 <0>        -0.1209
     27 C20         7.6237   -7.0567   -9.8358 C.ar      1 <0>        -0.0965
     28 C21         7.1889   -6.3483   -8.7295 C.ar      1 <0>        -0.1231
     29 C22         5.9293   -6.5728   -8.2141 C.ar      1 <0>        -0.0784
     30 N4         -1.2650   -2.5099   -0.5689 N.4       1 <0>        -0.3962
     31 C23        -2.2114   -2.1426    0.5154 C.3       1 <0>        -0.0050
     32 C24        -3.2977   -1.3225   -0.2249 C.3       1 <0>        -0.1448
     33 C25        -2.4794   -0.5270   -1.2678 C.3       1 <0>        -0.1427
     34 C26        -1.1709   -1.3199   -1.4422 C.3       1 <0>        -0.0110
     35 H2          3.2541   -4.5928    2.9947 H         1 <0>         0.0647
     36 H3          3.4948   -2.8474    3.2473 H         1 <0>         0.1120
     37 H4          2.1984   -3.7021    4.1174 H         1 <0>         0.0644
     38 H5          1.4556   -5.5535    3.4918 H         1 <0>         0.1430
     39 H6         -0.3462   -7.1815    3.0906 H         1 <0>         0.1399
     40 H7         -1.9579   -6.8117    1.2672 H         1 <0>         0.1389
     41 H8         -1.7712   -4.8148   -0.1591 H         1 <0>         0.1180
     42 H9          1.1918   -2.1830   -1.7148 H         1 <0>         0.0963
     43 H10         1.9957   -3.4224   -0.7219 H         1 <0>         0.1159
     44 H11        -0.3799   -4.4969   -1.8630 H         1 <0>         0.3908
     45 H12         0.4804   -6.5791   -3.3419 H         1 <0>         0.1067
     46 H13        -0.1976   -5.3340   -4.4182 H         1 <0>         0.1053
     47 H14         1.9812   -5.1596   -5.5890 H         1 <0>         0.1085
     48 H15         2.6592   -6.4047   -4.5127 H         1 <0>         0.1084
     49 H16         1.3389   -9.5744   -7.3515 H         1 <0>         0.0904
     50 H17         0.6619   -8.3148   -8.4330 H         1 <0>         0.0901
     51 H18         3.1654   -9.7888   -8.7452 H         1 <0>         0.1092
     52 H19         2.4887   -8.5298   -9.8263 H         1 <0>         0.1093
     53 H20         4.9027   -8.9747  -10.3839 H         1 <0>         0.1301
     54 H21         7.1485   -8.5489  -11.2915 H         1 <0>         0.1316
     55 H22         8.6091   -6.8734  -10.2381 H         1 <0>         0.1287
     56 H23         7.8355   -5.6144   -8.2715 H         1 <0>         0.1297
     57 H24         5.5894   -6.0158   -7.3536 H         1 <0>         0.1321
     58 H25        -2.6443   -3.0352    0.9669 H         1 <0>         0.1355
     59 H26        -1.7147   -1.5313    1.2689 H         1 <0>         0.1368
     60 H27        -4.0113   -1.9833   -0.7170 H         1 <0>         0.0983
     61 H28        -3.8065   -0.6471    0.4628 H         1 <0>         0.1188
     62 H29        -3.0195   -0.4757   -2.2132 H         1 <0>         0.1063
     63 H30        -2.2675    0.4760   -0.8973 H         1 <0>         0.1060
     64 H31        -0.3218   -0.7057   -1.1426 H         1 <0>         0.1346
     65 H32        -1.0601   -1.6298   -2.4813 H         1 <0>         0.1325
     66 H33        -1.6206   -3.2970   -1.0905 H         1 <0>         0.4158
@<TRIPOS>BOND
     1    1    2 1
     2    1   35 1
     3    1   36 1
     4    1   37 1
     5    2    3 1
     6    3    8 ar
     7    3    4 ar
     8    4    5 ar
     9    4   38 1
    10    5    6 ar
    11    5   39 1
    12    6    7 ar
    13    6   40 1
    14    7    8 ar
    15    7   41 1
    16    8    9 1
    17    9   10 1
    18    9   11 1
    19    9   30 1
    20   11   12 1
    21   11   42 1
    22   11   43 1
    23   12   13 am
    24   12   44 1
    25   13   14 2
    26   13   15 1
    27   15   16 1
    28   15   45 1
    29   15   46 1
    30   16   17 1
    31   16   47 1
    32   16   48 1
    33   17   18 2
    34   17   19 am
    35   19   23 1
    36   19   20 1
    37   20   21 1
    38   20   49 1
    39   20   50 1
    40   21   22 1
    41   21   51 1
    42   21   52 1
    43   22   23 2
    44   22   24 1
    45   24   29 ar
    46   24   25 ar
    47   25   26 ar
    48   25   53 1
    49   26   27 ar
    50   26   54 1
    51   27   28 ar
    52   27   55 1
    53   28   29 ar
    54   28   56 1
    55   29   57 1
    56   30   34 1
    57   30   31 1
    58   30   66 1
    59   31   32 1
    60   31   58 1
    61   31   59 1
    62   32   33 1
    63   32   60 1
    64   32   61 1
    65   33   34 1
    66   33   62 1
    67   33   63 1
    68   34   64 1
    69   34   65 1
@<TRIPOS>MOLECULE
ZINC59782623
   65    68     0     0     0
SMALL
USER_CHARGES

@<TRIPOS>ATOM
      1 C1          0.5985    1.3770   -0.3084 C.3       1 <0>         0.0223
      2 O1          0.4087   -0.0359   -0.2099 O.3       1 <0>        -0.3165
      3 C2          1.0632   -0.8109   -1.1143 C.ar      1 <0>         0.1650
      4 C3          1.8760   -0.2238   -2.0734 C.ar      1 <0>        -0.1888
      5 C4          2.5405   -1.0136   -2.9912 C.ar      1 <0>        -0.0513
      6 C5          2.3961   -2.3885   -2.9548 C.ar      1 <0>        -0.1328
      7 C6          1.5865   -2.9758   -2.0005 C.ar      1 <0>        -0.1027
      8 C7          0.9242   -2.1905   -1.0766 C.ar      1 <0>        -0.1742
      9 C8          0.0468   -2.8318   -0.0327 C.3       1 <0>         0.0829
     10 H1         -0.8555   -2.2349    0.1002 H         1 <0>         0.1624
     11 C9          0.8060   -2.9106    1.2933 C.3       1 <0>         0.1040
     12 N1          1.9446   -3.8214    1.1507 N.am      1 <0>        -0.7456
     13 C10         2.6996   -4.1294    2.2238 C.2       1 <0>         0.5072
     14 O2          2.4365   -3.6526    3.3075 O.2       1 <0>        -0.5008
     15 C11         3.8709   -5.0663    2.0771 C.3       1 <0>         0.0811
     16 N2          4.5241   -5.2386    3.3770 N.am      1 <0>        -0.5817
     17 C12         5.5324   -4.4386    3.8178 C.2       1 <0>         0.5475
     18 O3          5.8861   -3.3814    3.3417 O.2       1 <0>        -0.4594
     19 C13         6.1157   -5.1292    5.0097 C.3       1 <0>        -0.1288
     20 H2          6.8557   -5.8627    4.6896 H         1 <0>         0.1275
     21 C14         6.6682   -4.3031    6.1508 C.3       1 <0>        -0.0982
     22 C15         7.1448   -5.3087    7.2180 C.3       1 <0>        -0.1223
     23 C16         6.0189   -6.2309    7.6727 C.3       1 <0>        -0.1214
     24 C17         5.3262   -6.9282    6.4873 C.3       1 <0>        -0.0980
     25 C18         4.8470   -5.8533    5.5509 C.3       1 <0>        -0.1300
     26 H3          4.2281   -5.1497    6.1076 H         1 <0>         0.1262
     27 C19         4.1778   -6.2108    4.2637 C.2       1 <0>         0.5537
     28 O4          3.4719   -7.1733    4.0523 O.2       1 <0>        -0.4670
     29 N3         -0.3216   -4.1859   -0.4673 N.4       1 <0>        -0.3825
     30 C20        -1.1535   -4.1016   -1.6736 C.3       1 <0>        -0.0138
     31 C21        -1.4727   -5.5109   -2.1771 C.3       1 <0>        -0.1441
     32 C22        -2.2274   -6.2777   -1.0873 C.3       1 <0>        -0.1389
     33 C23        -1.3818   -6.2952    0.1894 C.3       1 <0>        -0.1435
     34 C24        -1.0659   -4.8568    0.6052 C.3       1 <0>        -0.0155
     35 H4          1.6557    1.6112   -0.1841 H         1 <0>         0.0650
     36 H5          0.2626    1.7214   -1.2865 H         1 <0>         0.0649
     37 H6          0.0218    1.8762    0.4702 H         1 <0>         0.1122
     38 H7          1.9888    0.8499   -2.1025 H         1 <0>         0.1438
     39 H8          3.1730   -0.5571   -3.7382 H         1 <0>         0.1407
     40 H9          2.9165   -3.0044   -3.6734 H         1 <0>         0.1396
     41 H10         1.4751   -4.0498   -1.9744 H         1 <0>         0.1190
     42 H11         1.1662   -1.9185    1.5653 H         1 <0>         0.1155
     43 H12         0.1395   -3.2813    2.0721 H         1 <0>         0.1024
     44 H13         2.1550   -4.2027    0.2840 H         1 <0>         0.3946
     45 H14         3.5199   -6.0329    1.7159 H         1 <0>         0.1268
     46 H15         4.5829   -4.6490    1.3651 H         1 <0>         0.1255
     47 H16         7.5067   -3.6990    5.8043 H         1 <0>         0.0836
     48 H17         5.8879   -3.6625    6.5617 H         1 <0>         0.0759
     49 H18         7.9516   -5.9121    6.8018 H         1 <0>         0.0678
     50 H19         7.5232   -4.7589    8.0798 H         1 <0>         0.0753
     51 H20         6.4299   -6.9896    8.3388 H         1 <0>         0.0759
     52 H21         5.2803   -5.6448    8.2195 H         1 <0>         0.0668
     53 H22         6.0360   -7.5704    5.9660 H         1 <0>         0.0745
     54 H23         4.4808   -7.5169    6.8433 H         1 <0>         0.0826
     55 H24        -2.0820   -3.5813   -1.4385 H         1 <0>         0.1325
     56 H25        -0.6164   -3.5529   -2.4472 H         1 <0>         0.1339
     57 H26        -2.0920   -5.4462   -3.0718 H         1 <0>         0.1144
     58 H27        -0.5449   -6.0321   -2.4128 H         1 <0>         0.0863
     59 H28        -3.1790   -5.7851   -0.8875 H         1 <0>         0.0835
     60 H29        -2.4075   -7.3002   -1.4192 H         1 <0>         0.0957
     61 H30        -1.9360   -6.7910    0.9863 H         1 <0>         0.1150
     62 H31        -0.4521   -6.8326    0.0029 H         1 <0>         0.0867
     63 H32        -0.4642   -4.8656    1.5140 H         1 <0>         0.1318
     64 H33        -1.9963   -4.3204    0.7918 H         1 <0>         0.1344
     65 H34         0.5149   -4.7108   -0.6740 H         1 <0>         0.4114
@<TRIPOS>BOND
     1    1    2 1
     2    1   35 1
     3    1   36 1
     4    1   37 1
     5    2    3 1
     6    3    8 ar
     7    3    4 ar
     8    4    5 ar
     9    4   38 1
    10    5    6 ar
    11    5   39 1
    12    6    7 ar
    13    6   40 1
    14    7    8 ar
    15    7   41 1
    16    8    9 1
    17    9   10 1
    18    9   11 1
    19    9   29 1
    20   11   12 1
    21   11   42 1
    22   11   43 1
    23   12   13 am
    24   12   44 1
    25   13   14 2
    26   13   15 1
    27   15   16 1
    28   15   45 1
    29   15   46 1
    30   16   27 am
    31   16   17 am
    32   17   18 2
    33   17   19 1
    34   19   20 1
    35   19   25 1
    36   19   21 1
    37   21   22 1
    38   21   47 1
    39   21   48 1
    40   22   23 1
    41   22   49 1
    42   22   50 1
    43   23   24 1
    44   23   51 1
    45   23   52 1
    46   24   25 1
    47   24   53 1
    48   24   54 1
    49   25   26 1
    50   25   27 1
    51   27   28 2
    52   29   34 1
    53   29   30 1
    54   29   65 1
    55   30   31 1
    56   30   55 1
    57   30   56 1
    58   31   32 1
    59   31   57 1
    60   31   58 1
    61   32   33 1
    62   32   59 1
    63   32   60 1
    64   33   34 1
    65   33   61 1
    66   33   62 1
    67   34   63 1
    68   34   64 1
@<TRIPOS>MOLECULE
ZINC64540750
   62    65     0     0     0
SMALL
USER_CHARGES

@<TRIPOS>ATOM
      1 C1         -0.0173    1.4248    0.0099 C.3       1 <0>         0.0251
      2 O1          0.0021   -0.0041    0.0020 O.3       1 <0>        -0.3152
      3 C2          0.6058   -0.6071   -1.0557 C.ar      1 <0>         0.1403
      4 C3          1.1730    0.1607   -2.0624 C.ar      1 <0>        -0.2104
      5 C4          1.7865   -0.4547   -3.1363 C.ar      1 <0>        -0.0582
      6 C5          1.8352   -1.8346   -3.2086 C.ar      1 <0>        -0.1554
      7 C6          1.2702   -2.6021   -2.2068 C.ar      1 <0>        -0.0594
      8 C7          0.6609   -1.9915   -1.1277 C.ar      1 <0>        -0.1537
      9 C8          2.5046   -2.5033   -4.3815 C.3       1 <0>         0.1668
     10 N1          3.9227   -2.7134   -4.0797 N.am      1 <0>        -0.7262
     11 C9          4.7256   -3.3002   -4.9894 C.2       1 <0>         0.5108
     12 O2          4.2740   -3.6543   -6.0579 O.2       1 <0>        -0.5375
     13 C10         6.1843   -3.5163   -4.6790 C.3       1 <0>        -0.1389
     14 C11         6.8640   -4.1952   -5.8698 C.3       1 <0>        -0.0732
     15 C12         6.2774   -5.5957   -6.0613 C.3       1 <0>        -0.1368
     16 C13         6.9356   -6.2591   -7.2752 C.3       1 <0>         0.1122
     17 N2          8.3935   -6.2350   -7.0946 N.am      1 <0>        -0.5909
     18 C14         9.0496   -4.9506   -6.8145 C.3       1 <0>         0.0895
     19 C15         8.3677   -4.3019   -5.6058 C.3       1 <0>        -0.1343
     20 C16         9.1153   -7.3697   -7.1838 C.2       1 <0>         0.5219
     21 O3          8.5619   -8.4238   -7.4151 O.2       1 <0>        -0.5023
     22 C17        10.6100   -7.3287   -6.9962 C.3       1 <0>         0.0737
     23 H1         10.8536   -6.9367   -6.0087 H         1 <0>         0.1922
     24 C18        11.2465   -6.4728   -8.0681 C.2       1 <0>         0.0255
     25 C19        12.0828   -7.2853   -8.7507 C.ar      1 <0>        -0.1592
     26 C20        12.9770   -7.0559   -9.8932 C.ar      1 <0>         0.0271
     27 C21        13.7083   -8.0854  -10.3715 C.ar      1 <0>        -0.2109
     28 C22        13.6341   -9.3709   -9.8023 C.ar      1 <0>         0.3017
     29 C23        12.8302   -9.6560   -8.7463 C.ar      1 <0>        -0.2707
     30 C24        12.0216   -8.6457   -8.1686 C.ar      1 <0>         0.3562
     31 N3         11.1773   -8.6716   -7.1612 N.pl3     1 <0>        -0.5699
     32 O4         14.3944  -10.3623  -10.3293 O.3       1 <0>        -0.2805
     33 C25        15.2263  -10.0212  -11.4400 C.3       1 <0>         0.0075
     34 H2          1.0053    1.8021    0.0021 H         1 <0>         0.0573
     35 H3         -0.5445    1.7859   -0.8732 H         1 <0>         0.0582
     36 H4         -0.5275    1.7763    0.9067 H         1 <0>         0.1043
     37 H5          1.1347    1.2385   -2.0068 H         1 <0>         0.1318
     38 H6          2.2283    0.1425   -3.9203 H         1 <0>         0.1267
     39 H7          1.3092   -3.6798   -2.2657 H         1 <0>         0.1309
     40 H8          0.2237   -2.5913   -0.3432 H         1 <0>         0.1346
     41 H9          2.0276   -3.4646   -4.5726 H         1 <0>         0.0769
     42 H10         2.4108   -1.8695   -5.2632 H         1 <0>         0.0764
     43 H11         4.2839   -2.4302   -3.2252 H         1 <0>         0.4026
     44 H12         6.6614   -2.5551   -4.4879 H         1 <0>         0.0982
     45 H13         6.2782   -4.1502   -3.7972 H         1 <0>         0.0953
     46 H14         6.6944   -3.6045   -6.7700 H         1 <0>         0.0874
     47 H15         6.4685   -6.1950   -5.1711 H         1 <0>         0.0646
     48 H16         5.2026   -5.5205   -6.2260 H         1 <0>         0.1052
     49 H17         6.5945   -7.2911   -7.3573 H         1 <0>         0.0989
     50 H18         6.6703   -5.7113   -8.1795 H         1 <0>         0.0843
     51 H19        10.1034   -5.1192   -6.5927 H         1 <0>         0.0819
     52 H20         8.9567   -4.2961   -7.6813 H         1 <0>         0.0914
     53 H21         8.7806   -3.3058   -5.4464 H         1 <0>         0.0890
     54 H22         8.5391   -4.9133   -4.7199 H         1 <0>         0.0740
     55 H23        11.0684   -5.4234   -8.2511 H         1 <0>         0.2132
     56 H24        13.0484   -6.0774  -10.3446 H         1 <0>         0.1738
     57 H25        14.3660   -7.9186  -11.2117 H         1 <0>         0.1683
     58 H26        12.8067  -10.6581   -8.3442 H         1 <0>         0.1696
     59 H27        14.6066   -9.6597  -12.2606 H         1 <0>         0.0770
     60 H28        15.9271   -9.2410  -11.1429 H         1 <0>         0.0771
     61 H29        15.7797  -10.9027  -11.7637 H         1 <0>         0.1248
     62 H30        10.9648   -9.4470   -6.6185 H         1 <0>         0.4596
@<TRIPOS>BOND
     1    1    2 1
     2    1   34 1
     3    1   35 1
     4    1   36 1
     5    2    3 1
     6    3    8 ar
     7    3    4 ar
     8    4    5 ar
     9    4   37 1
    10    5    6 ar
    11    5   38 1
    12    6    7 ar
    13    6    9 1
    14    7    8 ar
    15    7   39 1
    16    8   40 1
    17    9   10 1
    18    9   41 1
    19    9   42 1
    20   10   11 am
    21   10   43 1
    22   11   12 2
    23   11   13 1
    24   13   14 1
    25   13   44 1
    26   13   45 1
    27   14   19 1
    28   14   15 1
    29   14   46 1
    30   15   16 1
    31   15   47 1
    32   15   48 1
    33   16   17 1
    34   16   49 1
    35   16   50 1
    36   17   18 1
    37   17   20 am
    38   18   19 1
    39   18   51 1
    40   18   52 1
    41   19   53 1
    42   19   54 1
    43   20   21 2
    44   20   22 1
    45   22   23 1
    46   22   31 1
    47   22   24 1
    48   24   25 2
    49   24   55 1
    50   25   30 ar
    51   25   26 ar
    52   26   27 ar
    53   26   56 1
    54   27   28 ar
    55   27   57 1
    56   28   29 ar
    57   28   32 1
    58   29   30 ar
    59   29   58 1
    60   30   31 2
    61   31   62 1
    62   32   33 1
    63   33   59 1
    64   33   60 1
    65   33   61 1
@<TRIPOS>MOLECULE
ZINC10858355
   43    45     0     0     0
SMALL
USER_CHARGES
2-[(5-chloro-2-thienyl)methyl-methyl-amino]-N-(2,9-dimethyl-5-oxo-8-oxa-3,4-diazabicyclo[4.3.0]nona-2,6,9-trien-7-yl)-acetamide
@<TRIPOS>ATOM
      1 C1          9.2536   -4.0696   -8.6996 C.3       1 <0>        -0.1033
      2 C2          9.3545   -3.9256   -7.2029 C.2       1 <0>         0.1887
      3 C3          8.2777   -3.2734   -6.4518 C.2       1 <0>        -0.1656
      4 C4          7.0905   -2.7003   -6.7403 C.2       1 <0>         0.0716
      5 O1          6.5224   -2.2645   -5.6008 O.3       1 <0>        -0.1435
      6 C5          7.3013   -2.5197   -4.5382 C.2       1 <0>         0.3075
      7 C6          8.4333   -3.1603   -4.9805 C.2       1 <0>        -0.2532
      8 C7          9.6486   -3.7071   -4.3859 C.2       1 <0>         0.5717
      9 O2          9.8341   -3.6448   -3.1835 O.2       1 <0>        -0.5381
     10 N1         10.5628   -4.2833   -5.1941 N.am      1 <0>        -0.5311
     11 H1         11.3703   -4.6465   -4.7980 H         1 <0>         0.4414
     12 N2         10.3949   -4.3779   -6.5733 N.2       1 <0>        -0.2406
     13 N3          7.0115   -2.1985   -3.2231 N.am      1 <0>        -0.6018
     14 C8          5.8599   -1.5663   -2.9219 C.2       1 <0>         0.4965
     15 O3          5.0776   -1.2788   -3.8029 O.2       1 <0>        -0.4833
     16 C9          5.5445   -1.2166   -1.4904 C.3       1 <0>        -0.0215
     17 C10         4.2955    0.7654   -2.1022 C.3       1 <0>        -0.0595
     18 C11         3.7915   -0.3937   -0.0370 C.3       1 <0>         0.1023
     19 C12         2.3599    0.0767   -0.0201 C.2       1 <0>        -0.2692
     20 C13         1.2207   -0.6572   -0.0131 C.2       1 <0>        -0.0677
     21 C14         0.0021   -0.0041    0.0020 C.2       1 <0>        -0.1635
     22 C15        -0.0163    1.3524    0.0095 C.2       1 <0>        -0.0756
     23 S1          1.7251    1.7452   -0.0050 S.3       1 <0>         0.1441
     24 Cl1        -1.3795    2.4272    0.0222 Cl        1 <0>         0.0526
     25 C16         6.4934   -2.5739   -8.1182 C.3       1 <0>        -0.0877
     26 H2          9.6963   -3.1966   -9.1793 H         1 <0>         0.0953
     27 H3          9.7864   -4.9666   -9.0150 H         1 <0>         0.0939
     28 H4          8.2053   -4.1496   -8.9871 H         1 <0>         0.0897
     29 H5          7.6372   -2.4284   -2.5185 H         1 <0>         0.4509
     30 H6          6.3179   -0.5557   -1.0989 H         1 <0>         0.1739
     31 H7          5.5087   -2.1277   -0.8932 H         1 <0>         0.1715
     32 H8          4.9903    1.4195   -1.5754 H         1 <0>         0.1272
     33 H9          4.6327    0.6293   -3.1298 H         1 <0>         0.1374
     34 H10         3.3024    1.2148   -2.1022 H         1 <0>         0.1247
     35 H11         4.4195    0.3354    0.4750 H         1 <0>         0.1494
     36 H12         3.8639   -1.3556    0.4705 H         1 <0>         0.1530
     37 H13         1.2641   -1.7363   -0.0190 H         1 <0>         0.1528
     38 H14        -0.9208   -0.5651    0.0082 H         1 <0>         0.1584
     39 H15         5.8823   -3.4511   -8.3312 H         1 <0>         0.0995
     40 H16         5.8729   -1.6789   -8.1646 H         1 <0>         0.0904
     41 H17         7.2929   -2.5003   -8.8554 H         1 <0>         0.1083
     42 N4          4.2238   -0.5547   -1.4412 N.4       1 <0>        -0.3860
     43 H18         3.5394   -1.1387   -1.9360 H         1 <0>         0.4386
@<TRIPOS>BOND
     1    1    2 1
     2    1   26 1
     3    1   27 1
     4    1   28 1
     5    2   12 2
     6    2    3 1
     7    3    7 1
     8    3    4 2
     9    4    5 1
    10    4   25 1
    11    5    6 1
    12    6    7 2
    13    6   13 1
    14    7    8 1
    15    8    9 2
    16    8   10 am
    17   10   11 1
    18   10   12 1
    19   13   14 am
    20   13   29 1
    21   14   15 2
    22   14   16 1
    23   16   30 1
    24   16   31 1
    25   16   42 1
    26   17   32 1
    27   17   33 1
    28   17   34 1
    29   17   42 1
    30   18   19 1
    31   18   35 1
    32   18   36 1
    33   18   42 1
    34   19   23 1
    35   19   20 2
    36   20   21 1
    37   20   37 1
    38   21   22 2
    39   21   38 1
    40   22   23 1
    41   22   24 1
    42   25   39 1
    43   25   40 1
    44   25   41 1
    45   42   43 1
@<TRIPOS>MOLECULE
ZINC22281618
   56    58     0     0     0
SMALL
USER_CHARGES

@<TRIPOS>ATOM
      1 C1         -0.0184    1.5028    0.0103 C.3       1 <0>        -0.1312
      2 C2          0.0021   -0.0041    0.0020 C.ar      1 <0>        -0.0332
      3 C3          0.0057   -0.6863   -1.2015 C.ar      1 <0>        -0.1216
      4 C4          0.0243   -2.0658   -1.2158 C.ar      1 <0>        -0.0517
      5 C5          0.0396   -2.7728   -0.0132 C.ar      1 <0>        -0.0833
      6 C6          0.0359   -2.0790    1.1971 C.ar      1 <0>        -0.0724
      7 C7          0.0229   -0.6993    1.1980 C.ar      1 <0>        -0.1171
      8 C8          0.0592   -4.2524   -0.0214 C.2       1 <0>         0.3783
      9 N1          0.0699   -5.0650    1.0952 N.pl3     1 <0>        -0.5901
     10 H1          0.0659   -4.7638    2.0172 H         1 <0>         0.4609
     11 C9          0.0864   -6.3484    0.6837 C.2       1 <0>         0.4705
     12 S1          0.1040   -7.7325    1.6911 S.2       1 <0>        -0.4957
     13 N2          0.0861   -6.3452   -0.6651 N.pl3     1 <0>        -0.4272
     14 N3          0.0635   -5.0078   -1.0836 N.2       1 <0>        -0.2932
     15 C10         0.1012   -7.5246   -1.5340 C.3       1 <0>         0.2702
     16 N4         -1.2343   -7.7235   -2.1128 N.4       1 <0>        -0.4066
     17 C11        -1.5590   -6.5938   -2.9937 C.3       1 <0>        -0.0065
     18 C12        -2.9577   -6.7913   -3.5822 C.3       1 <0>         0.0306
     19 N5         -2.9945   -8.0510   -4.3385 N.3       1 <0>        -0.5207
     20 C13        -2.6471   -9.1885   -3.4751 C.3       1 <0>         0.0224
     21 C14        -1.2509   -8.9713   -2.8875 C.3       1 <0>         0.0030
     22 C15        -4.3072   -8.2491   -4.9675 C.3       1 <0>         0.0337
     23 C16        -4.2350   -9.4103   -5.9254 C.2       1 <0>         0.5141
     24 O1         -3.1928  -10.0134   -6.0698 O.2       1 <0>        -0.5249
     25 N6         -5.3288   -9.7786   -6.6215 N.am      1 <0>        -0.7223
     26 C17        -5.2586  -10.9074   -7.5527 C.3       1 <0>         0.1366
     27 C18        -5.4852  -12.2135   -6.7887 C.3       1 <0>        -0.1647
     28 C19        -6.3375  -10.7508   -8.6262 C.3       1 <0>        -0.1647
     29 H2          1.0042    1.8801    0.0026 H         1 <0>         0.0849
     30 H3         -0.5455    1.8639   -0.8728 H         1 <0>         0.0771
     31 H4         -0.5286    1.8543    0.9071 H         1 <0>         0.0772
     32 H5         -0.0065   -0.1379   -2.1319 H         1 <0>         0.1407
     33 H6          0.0268   -2.5973   -2.1560 H         1 <0>         0.1384
     34 H7          0.0473   -2.6206    2.1314 H         1 <0>         0.1286
     35 H8          0.0244   -0.1609    2.1342 H         1 <0>         0.1413
     36 H9          0.8259   -7.3768   -2.3347 H         1 <0>         0.1693
     37 H10         0.3786   -8.4024   -0.9504 H         1 <0>         0.1826
     38 H11        -1.5334   -5.6671   -2.4205 H         1 <0>         0.1381
     39 H12        -0.8290   -6.5416   -3.8015 H         1 <0>         0.1443
     40 H13        -3.6896   -6.8299   -2.7754 H         1 <0>         0.0600
     41 H14        -3.1929   -5.9606   -4.2476 H         1 <0>         0.1265
     42 H15        -3.3739   -9.2667   -2.6665 H         1 <0>         0.0589
     43 H16        -2.6557  -10.1067   -4.0624 H         1 <0>         0.1449
     44 H17        -0.5226   -8.9069   -3.6959 H         1 <0>         0.1470
     45 H18        -0.9971   -9.8071   -2.2356 H         1 <0>         0.1449
     46 H19        -5.0508   -8.4582   -4.1985 H         1 <0>         0.0769
     47 H20        -4.5897   -7.3472   -5.5105 H         1 <0>         0.1180
     48 H21        -6.1624   -9.2962   -6.5060 H         1 <0>         0.4021
     49 H22        -4.2765  -10.9284   -8.0249 H         1 <0>         0.0911
     50 H23        -4.7166  -12.3251   -6.0239 H         1 <0>         0.0578
     51 H24        -6.4673  -12.1926   -6.3164 H         1 <0>         0.0581
     52 H25        -5.4330  -13.0534   -7.4815 H         1 <0>         0.0712
     53 H26        -6.1761   -9.8203   -9.1704 H         1 <0>         0.0635
     54 H27        -6.2853  -11.5907   -9.3190 H         1 <0>         0.0781
     55 H28        -7.3197  -10.7298   -8.1539 H         1 <0>         0.0631
     56 H29        -1.9169   -7.7787   -1.3719 H         1 <0>         0.4223
@<TRIPOS>BOND
     1    1    2 1
     2    1   29 1
     3    1   30 1
     4    1   31 1
     5    2    7 ar
     6    2    3 ar
     7    3    4 ar
     8    3   32 1
     9    4    5 ar
    10    4   33 1
    11    5    6 ar
    12    5    8 1
    13    6    7 ar
    14    6   34 1
    15    7   35 1
    16    8   14 2
    17    8    9 1
    18    9   10 1
    19    9   11 1
    20   11   12 2
    21   11   13 1
    22   13   14 1
    23   13   15 1
    24   15   16 1
    25   15   36 1
    26   15   37 1
    27   16   21 1
    28   16   17 1
    29   16   56 1
    30   17   18 1
    31   17   38 1
    32   17   39 1
    33   18   19 1
    34   18   40 1
    35   18   41 1
    36   19   20 1
    37   19   22 1
    38   20   21 1
    39   20   42 1
    40   20   43 1
    41   21   44 1
    42   21   45 1
    43   22   23 1
    44   22   46 1
    45   22   47 1
    46   23   24 2
    47   23   25 am
    48   25   26 1
    49   25   48 1
    50   26   27 1
    51   26   28 1
    52   26   49 1
    53   27   50 1
    54   27   51 1
    55   27   52 1
    56   28   53 1
    57   28   54 1
    58   28   55 1
@<TRIPOS>MOLECULE
ZINC39777147
   52    55     0     0     0
SMALL
USER_CHARGES

@<TRIPOS>ATOM
      1 C1         -0.0187    1.5258    0.0104 C.3       1 <0>        -0.1491
      2 C2          0.0021   -0.0041    0.0020 C.3       1 <0>         0.0578
      3 O1         -1.3386   -0.4987    0.0122 O.3       1 <0>        -0.3549
      4 C3         -1.4964   -1.8317    0.0065 C.2       1 <0>         0.4675
      5 O2         -0.5283   -2.5546   -0.0066 O.2       1 <0>        -0.4727
      6 C4         -2.8809   -2.4266    0.0165 C.3       1 <0>        -0.0630
      7 H1         -3.4067   -2.0883    0.9094 H         1 <0>         0.1383
      8 C5         -3.6486   -1.9410   -1.2364 C.3       1 <0>         0.1895
      9 H2         -2.9704   -1.7200   -2.0606 H         1 <0>         0.1487
     10 S1         -4.6384   -3.4596   -1.5639 S.3       1 <0>        -0.1625
     11 C6         -3.6141   -4.6269   -0.6991 C.2       1 <0>        -0.0716
     12 C7         -2.7706   -3.9301    0.0500 C.2       1 <0>        -0.1314
     13 C8         -1.7267   -4.6320    0.9163 C.3       1 <0>        -0.0598
     14 C9         -2.1424   -6.0879    1.1218 C.3       1 <0>        -0.1252
     15 C10        -2.4215   -6.7368   -0.2377 C.3       1 <0>        -0.1175
     16 C11        -3.7006   -6.1235   -0.8110 C.3       1 <0>        -0.0534
     17 N1         -4.5068   -0.7938   -0.9303 N.am      1 <0>        -0.6736
     18 C12        -4.5302    0.2699   -1.7575 C.2       1 <0>         0.5422
     19 O3         -3.8408    0.2775   -2.7553 O.2       1 <0>        -0.4903
     20 C13        -5.4130    1.4500   -1.4427 C.3       1 <0>        -0.1468
     21 H3         -6.4426    1.0938   -1.4089 H         1 <0>         0.2105
     22 C14        -5.2990    2.4358   -2.5895 C.2       1 <0>         0.4236
     23 C15        -4.8657    3.7260   -2.2765 C.ar      1 <0>        -0.2689
     24 C16        -4.7323    4.7045   -3.2828 C.ar      1 <0>        -0.0044
     25 C17        -4.3084    5.9548   -2.9511 C.ar      1 <0>        -0.1481
     26 C18        -4.0028    6.2891   -1.6356 C.ar      1 <0>         0.0560
     27 C19        -4.1124    5.3862   -0.6209 C.ar      1 <0>        -0.1918
     28 C20        -4.5443    4.0764   -0.8906 C.ar      1 <0>         0.3193
     29 N2         -4.6517    3.1911    0.1084 N.am      1 <0>        -0.6051
     30 C21        -5.0484    1.9470   -0.0623 C.2       1 <0>         0.5451
     31 O4         -5.1220    1.1965    0.8933 O.2       1 <0>        -0.4287
     32 O5         -5.5994    2.0851   -3.8445 O.3       1 <0>        -0.3508
     33 H4          1.0039    1.9031    0.0027 H         1 <0>         0.0864
     34 H5         -0.5459    1.8868   -0.8726 H         1 <0>         0.0595
     35 H6         -0.5289    1.8773    0.9072 H         1 <0>         0.0641
     36 H7          0.5123   -0.3556   -0.8948 H         1 <0>         0.0724
     37 H8          0.5293   -0.3651    0.8851 H         1 <0>         0.0743
     38 H9         -0.7574   -4.5967    0.4191 H         1 <0>         0.0997
     39 H10        -1.6599   -4.1324    1.8828 H         1 <0>         0.0712
     40 H11        -1.3395   -6.6275    1.6239 H         1 <0>         0.0752
     41 H12        -3.0435   -6.1254    1.7340 H         1 <0>         0.0669
     42 H13        -1.5865   -6.5474   -0.9122 H         1 <0>         0.0715
     43 H14        -2.5565   -7.8108   -0.1099 H         1 <0>         0.0792
     44 H15        -4.5648   -6.4823   -0.2520 H         1 <0>         0.0903
     45 H16        -3.7978   -6.4065   -1.8591 H         1 <0>         0.0885
     46 H17        -5.0582   -0.7999   -0.1323 H         1 <0>         0.4242
     47 H18        -4.9645    4.4637   -4.3097 H         1 <0>         0.1590
     48 H19        -4.2069    6.7019   -3.7243 H         1 <0>         0.1630
     49 H20        -3.6691    7.2917   -1.4125 H         1 <0>         0.1660
     50 H21        -3.8671    5.6770    0.3899 H         1 <0>         0.1701
     51 H22        -5.4883    2.7973   -4.4892 H         1 <0>         0.4454
     52 H23        -4.4247    3.4816    1.0056 H         1 <0>         0.4445
@<TRIPOS>BOND
     1    1    2 1
     2    1   33 1
     3    1   34 1
     4    1   35 1
     5    2    3 1
     6    2   36 1
     7    2   37 1
     8    3    4 1
     9    4    5 2
    10    4    6 1
    11    6    7 1
    12    6   12 1
    13    6    8 1
    14    8    9 1
    15    8   10 1
    16    8   17 1
    17   10   11 1
    18   11   16 1
    19   11   12 2
    20   12   13 1
    21   13   14 1
    22   13   38 1
    23   13   39 1
    24   14   15 1
    25   14   40 1
    26   14   41 1
    27   15   16 1
    28   15   42 1
    29   15   43 1
    30   16   44 1
    31   16   45 1
    32   17   18 am
    33   17   46 1
    34   18   19 2
    35   18   20 1
    36   20   21 1
    37   20   30 1
    38   20   22 1
    39   22   23 2
    40   22   32 1
    41   23   28 ar
    42   23   24 ar
    43   24   25 ar
    44   24   47 1
    45   25   26 ar
    46   25   48 1
    47   26   27 ar
    48   26   49 1
    49   27   28 ar
    50   27   50 1
    51   28   29 2
    52   29   30 am
    53   29   52 1
    54   30   31 2
    55   32   51 1
@<TRIPOS>MOLECULE
ZINC04017528
   39    41     0     0     0
SMALL
USER_CHARGES

@<TRIPOS>ATOM
      1 C1         -0.0162    1.3445    0.0094 C.2       1 <0>        -0.2217
      2 C2          1.3226    1.7770   -0.0010 C.2       1 <0>        -0.1051
      3 C3          2.0987    0.6521   -0.0145 C.2       1 <0>        -0.0410
      4 O1          1.2799   -0.4194   -0.0124 O.3       1 <0>        -0.1592
      5 C4          0.0021   -0.0041    0.0020 C.2       1 <0>         0.0245
      6 C5          3.5608    0.6166   -0.0291 C.2       1 <0>         0.2455
      7 N1          4.1872   -0.5320   -0.0412 N.2       1 <0>        -0.3331
      8 N2          5.4767   -0.5632   -0.0540 N.pl3     1 <0>        -0.4210
      9 C6          6.1078   -1.7204   -0.0662 C.cat     1 <0>         0.4731
     10 N3          5.3922   -2.8933   -0.0652 N.pl3     1 <0>        -0.7409
     11 S1          7.8692   -1.7632   -0.0838 S.3       1 <0>         0.1467
     12 C7          8.2651   -3.5334   -0.0968 C.3       1 <0>        -0.1673
     13 H1          7.7592   -4.0324   -0.9233 H         1 <0>         0.1770
     14 C8          9.7899   -3.7480   -0.1848 C.3       1 <0>        -0.1220
     15 C9         10.1187   -4.4854    1.0949 C.2       1 <0>         0.5266
     16 O2         11.2245   -4.8525    1.4295 O.2       1 <0>        -0.4190
     17 N4          8.9949   -4.6676    1.7994 N.am      1 <0>        -0.5137
     18 C10         7.8889   -4.1730    1.2219 C.2       1 <0>         0.5345
     19 O3          6.7684   -4.2274    1.6815 O.2       1 <0>        -0.4479
     20 C11         8.9741   -5.3236    3.0387 C.ar      1 <0>         0.1114
     21 C12         9.1373   -4.5996    4.2115 C.ar      1 <0>        -0.0754
     22 C13         9.1159   -5.2488    5.4317 C.ar      1 <0>        -0.0245
     23 C14         8.9324   -6.6197    5.4845 C.ar      1 <0>        -0.0705
     24 C15         8.7696   -7.3434    4.3180 C.ar      1 <0>        -0.0841
     25 C16         8.7844   -6.6986    3.0952 C.ar      1 <0>        -0.0141
     26 Cl1         8.5734   -7.6074    1.6312 Cl        1 <0>        -0.0406
     27 Cl2         9.3199   -4.3441    6.8992 Cl        1 <0>        -0.0333
     28 H2         -0.8936    1.9740    0.0252 H         1 <0>         0.1663
     29 H3          1.6697    2.7997    0.0008 H         1 <0>         0.1674
     30 H4         -0.8673   -0.6448    0.0072 H         1 <0>         0.2184
     31 H5          4.1233    1.5385   -0.0298 H         1 <0>         0.1685
     32 H6          4.4225   -2.8697   -0.0555 H         1 <0>         0.4422
     33 H7         10.0422   -4.3560   -1.0536 H         1 <0>         0.1634
     34 H8         10.3105   -2.7910   -0.2207 H         1 <0>         0.1460
     35 H9          9.2813   -3.5300    4.1708 H         1 <0>         0.1490
     36 H10         8.9167   -7.1250    6.4389 H         1 <0>         0.1587
     37 H11         8.6266   -8.4129    4.3623 H         1 <0>         0.1603
     38 H12         5.8566   -3.7448   -0.0742 H         1 <0>         0.4352
     39 H13         5.9819    0.2648   -0.0547 H         1 <0>         0.4199
@<TRIPOS>BOND
     1    1    5 2
     2    1    2 1
     3    1   28 1
     4    2    3 2
     5    2   29 1
     6    3    4 1
     7    3    6 1
     8    4    5 1
     9    5   30 1
    10    6    7 2
    11    6   31 1
    12    7    8 1
    13    8    9 2
    14    8   39 1
    15    9   10 1
    16    9   11 1
    17   10   32 1
    18   10   38 1
    19   11   12 1
    20   12   13 1
    21   12   18 1
    22   12   14 1
    23   14   15 1
    24   14   33 1
    25   14   34 1
    26   15   16 2
    27   15   17 am
    28   17   18 am
    29   17   20 1
    30   18   19 2
    31   20   25 ar
    32   20   21 ar
    33   21   22 ar
    34   21   35 1
    35   22   23 ar
    36   22   27 1
    37   23   24 ar
    38   23   36 1
    39   24   25 ar
    40   24   37 1
    41   25   26 1
@<TRIPOS>MOLECULE
ZINC65990371
   55    58     0     0     0
SMALL
USER_CHARGES

@<TRIPOS>ATOM
      1 C1         -0.0650    1.5326    0.1305 C.3       1 <0>        -0.1242
      2 C2         -0.0379    0.0260    0.1048 C.2       1 <0>        -0.0702
      3 C3         -0.0314   -0.6523   -1.1253 C.2       1 <0>        -0.0151
      4 C4         -0.0065   -2.0121   -1.1448 C.2       1 <0>        -0.1200
      5 C5          0.0125   -2.7197    0.0739 C.cat     1 <0>         0.3043
      6 N1          0.0370   -4.0152    0.3535 N.pl3     1 <0>        -0.4995
      7 C6          0.0460   -4.1774    1.6788 C.2       1 <0>         0.0739
      8 C7          0.0269   -2.9592    2.2627 C.2       1 <0>         0.0030
      9 N2          0.0056   -2.0299    1.2585 N.pl3     1 <0>        -0.3233
     10 C8         -0.0143   -0.6652    1.2636 C.2       1 <0>         0.0744
     11 C9          0.0730   -5.4989    2.4026 C.3       1 <0>         0.1996
     12 N3          1.4581   -5.9600    2.5258 N.am      1 <0>        -0.7555
     13 C10         1.7272   -7.1278    3.1423 C.2       1 <0>         0.7098
     14 O1          0.8205   -7.7987    3.5964 O.2       1 <0>        -0.5743
     15 N4          3.0014   -7.5521    3.2556 N.am      1 <0>        -0.7326
     16 C11         3.2940   -8.8215    3.9259 C.3       1 <0>         0.2068
     17 C12         3.1550   -9.9705    2.9251 C.3       1 <0>        -0.1606
     18 C13         4.7009   -8.7923    4.4650 C.ar      1 <0>        -0.1259
     19 C14         5.7131   -8.2145    3.7208 C.ar      1 <0>        -0.0847
     20 C15         7.0036   -8.1861    4.2121 C.ar      1 <0>        -0.1543
     21 C16         7.2841   -8.7384    5.4550 C.ar      1 <0>         0.1733
     22 C17         6.2653   -9.3175    6.2001 C.ar      1 <0>        -0.1523
     23 C18         4.9760   -9.3384    5.7053 C.ar      1 <0>        -0.0742
     24 N5          8.5905   -8.7117    5.9554 N.am      1 <0>        -0.5619
     25 C19         8.9721   -9.1627    7.2989 C.3       1 <0>         0.0926
     26 C20        10.5035   -9.3595    7.2481 C.3       1 <0>        -0.1325
     27 C21        10.9078   -8.3943    6.1097 C.3       1 <0>        -0.1546
     28 C22         9.6582   -8.2750    5.2653 C.2       1 <0>         0.5172
     29 O2          9.6243   -7.8454    4.1316 O.2       1 <0>        -0.5091
     30 H1          0.9559    1.9144    0.1269 H         1 <0>         0.0972
     31 H2         -0.5940    1.9015   -0.7483 H         1 <0>         0.0933
     32 H3         -0.5765    1.8714    1.0314 H         1 <0>         0.0880
     33 H4         -0.0466   -0.0966   -2.0513 H         1 <0>         0.1764
     34 H5         -0.0017   -2.5442   -2.0846 H         1 <0>         0.1817
     35 H6          0.0278   -2.7567    3.3235 H         1 <0>         0.2301
     36 H7         -0.0154   -0.1337    2.2037 H         1 <0>         0.2008
     37 H8         -0.3594   -5.3780    3.3959 H         1 <0>         0.1184
     38 H9         -0.5056   -6.2325    1.8413 H         1 <0>         0.1036
     39 H10         2.1814   -5.4248    2.1635 H         1 <0>         0.3991
     40 H11         3.7248   -7.0169    2.8934 H         1 <0>         0.3968
     41 H12         2.5930   -8.9685    4.7475 H         1 <0>         0.1001
     42 H13         3.3727  -10.9149    3.4238 H         1 <0>         0.0729
     43 H14         2.1374   -9.9916    2.5352 H         1 <0>         0.0648
     44 H15         3.8560   -9.8234    2.1035 H         1 <0>         0.0588
     45 H16         5.4943   -7.7852    2.7542 H         1 <0>         0.1208
     46 H17         7.7938   -7.7353    3.6301 H         1 <0>         0.1565
     47 H18         6.4803   -9.7482    7.1669 H         1 <0>         0.1306
     48 H19         4.1825   -9.7850    6.2860 H         1 <0>         0.1317
     49 H20         8.7134   -8.4052    8.0387 H         1 <0>         0.0844
     50 H21         8.4783  -10.1054    7.5347 H         1 <0>         0.0895
     51 H22        10.9659   -9.0664    8.1906 H         1 <0>         0.1001
     52 H23        10.7563  -10.3891    6.9948 H         1 <0>         0.0885
     53 H24        11.1926   -7.4237    6.5156 H         1 <0>         0.1123
     54 H25        11.7228   -8.8173    5.5223 H         1 <0>         0.1105
     55 H26         0.0468   -4.7315   -0.3005 H         1 <0>         0.4628
@<TRIPOS>BOND
     1    1    2 1
     2    1   30 1
     3    1   31 1
     4    1   32 1
     5    2   10 2
     6    2    3 1
     7    3    4 2
     8    3   33 1
     9    4    5 1
    10    4   34 1
    11    5    9 1
    12    5    6 2
    13    6    7 1
    14    6   55 1
    15    7    8 2
    16    7   11 1
    17    8    9 1
    18    8   35 1
    19    9   10 1
    20   10   36 1
    21   11   12 1
    22   11   37 1
    23   11   38 1
    24   12   13 am
    25   12   39 1
    26   13   14 2
    27   13   15 am
    28   15   16 1
    29   15   40 1
    30   16   17 1
    31   16   18 1
    32   16   41 1
    33   17   42 1
    34   17   43 1
    35   17   44 1
    36   18   23 ar
    37   18   19 ar
    38   19   20 ar
    39   19   45 1
    40   20   21 ar
    41   20   46 1
    42   21   22 ar
    43   21   24 1
    44   22   23 ar
    45   22   47 1
    46   23   48 1
    47   24   28 am
    48   24   25 1
    49   25   26 1
    50   25   49 1
    51   25   50 1
    52   26   27 1
    53   26   51 1
    54   26   52 1
    55   27   28 1
    56   27   53 1
    57   27   54 1
    58   28   29 2
@<TRIPOS>MOLECULE
ZINC12779795
   56    57     0     0     0
SMALL
USER_CHARGES
N-[(2S)-2-dimethylamino-2-(4-ethylphenyl)ethyl]-2-methoxy-5-sulfamoyl-benzamide
@<TRIPOS>ATOM
      1 C1         -0.2266    5.5671   -3.4870 C.3       1 <0>        -0.1487
      2 C2          0.0284    5.5415   -1.9786 C.3       1 <0>        -0.0993
      3 C3          0.0106    4.1159   -1.4902 C.ar      1 <0>        -0.0418
      4 C4          1.1798    3.3788   -1.4667 C.ar      1 <0>        -0.1067
      5 C5          1.1635    2.0710   -1.0191 C.ar      1 <0>        -0.0775
      6 C6         -0.0221    1.5003   -0.5952 C.ar      1 <0>        -0.1460
      7 C7         -1.1922    2.2358   -0.6238 C.ar      1 <0>        -0.1192
      8 C8         -1.1749    3.5453   -1.0663 C.ar      1 <0>        -0.1072
      9 C9         -0.0400    0.0745   -0.1077 C.3       1 <0>         0.0740
     10 H1          0.8968   -0.4134   -0.3772 H         1 <0>         0.1497
     11 C10        -0.2048    0.0575    1.4133 C.3       1 <0>         0.1034
     12 N1         -0.2974   -1.3284    1.8790 N.am      1 <0>        -0.7555
     13 C11        -0.5460   -1.5876    3.1780 C.2       1 <0>         0.5706
     14 O1         -0.6934   -0.6712    3.9634 O.2       1 <0>        -0.4868
     15 C12        -0.6392   -2.9833    3.6471 C.ar      1 <0>        -0.2042
     16 C13        -0.4762   -4.0393    2.7470 C.ar      1 <0>         0.0498
     17 C14        -0.5601   -5.3406    3.1922 C.ar      1 <0>        -0.7228
     18 C15        -0.8152   -5.6075    4.5276 C.ar      1 <0>         0.0552
     19 C16        -0.9835   -4.5734    5.4267 C.ar      1 <0>        -0.2317
     20 C17        -0.8975   -3.2574    4.9969 C.ar      1 <0>         0.2475
     21 O2         -1.0623   -2.2403    5.8792 O.3       1 <0>        -0.2734
     22 C18        -1.3227   -2.5964    7.2384 C.3       1 <0>         0.0123
     23 S1         -0.3481   -6.6713    2.0569 S.o2      1 <0>         2.7050
     24 O3          0.4202   -6.1635    0.9748 O.2       1 <0>        -0.9651
     25 O4          0.0634   -7.7961    2.8217 O.2       1 <0>        -0.9517
     26 N2         -1.8433   -7.0362    1.4455 N.pl3     1 <0>        -1.2501
     27 C19        -2.3759   -0.5314    0.0895 C.3       1 <0>        -0.0650
     28 C20        -1.4025   -0.1577   -2.0957 C.3       1 <0>        -0.0498
     29 H2          0.5514    4.9987   -3.9967 H         1 <0>         0.0578
     30 H3         -1.1990    5.1226   -3.6987 H         1 <0>         0.0565
     31 H4         -0.2137    6.5982   -3.8402 H         1 <0>         0.0675
     32 H5         -0.7496    6.1099   -1.4689 H         1 <0>         0.0808
     33 H6          1.0008    5.9860   -1.7669 H         1 <0>         0.0816
     34 H7          2.1060    3.8245   -1.7982 H         1 <0>         0.1373
     35 H8          2.0769    1.4950   -1.0011 H         1 <0>         0.1352
     36 H9         -2.1192    1.7885   -0.2967 H         1 <0>         0.1274
     37 H10        -2.0884    4.1210   -1.0851 H         1 <0>         0.1356
     38 H11         0.6554    0.5401    1.8773 H         1 <0>         0.1146
     39 H12        -1.1135    0.5940    1.6863 H         1 <0>         0.1022
     40 H13        -0.1797   -2.0595    1.2524 H         1 <0>         0.3947
     41 H14        -0.2812   -3.8360    1.7044 H         1 <0>         0.1439
     42 H15        -0.8831   -6.6305    4.8671 H         1 <0>         0.1574
     43 H16        -1.1828   -4.7894    6.4659 H         1 <0>         0.1543
     44 H17        -2.2408   -3.1816    7.2912 H         1 <0>         0.0670
     45 H18        -0.4924   -3.1876    7.6247 H         1 <0>         0.0676
     46 H19        -1.4336   -1.6917    7.8362 H         1 <0>         0.1146
     47 H20        -2.6217   -6.5362    1.7371 H         1 <0>         0.4163
     48 H21        -1.9407   -7.7499    0.7959 H         1 <0>         0.4249
     49 H22        -2.4936    0.4979    0.4281 H         1 <0>         0.1290
     50 H23        -3.2428   -0.8198   -0.5050 H         1 <0>         0.1290
     51 H24        -2.2923   -1.1907    0.9535 H         1 <0>         0.1254
     52 H25        -0.4696   -0.1801   -2.6590 H         1 <0>         0.1237
     53 H26        -2.1371   -0.7982   -2.5839 H         1 <0>         0.1239
     54 H27        -1.7796    0.8643   -2.0579 H         1 <0>         0.1312
     55 N3         -1.1546   -0.6694   -0.7314 N.4       1 <0>        -0.3950
     56 H28        -0.9017   -1.6629   -0.7887 H         1 <0>         0.4308
@<TRIPOS>BOND
     1    1    2 1
     2    1   29 1
     3    1   30 1
     4    1   31 1
     5    2    3 1
     6    2   32 1
     7    2   33 1
     8    3    8 ar
     9    3    4 ar
    10    4    5 ar
    11    4   34 1
    12    5    6 ar
    13    5   35 1
    14    6    7 ar
    15    6    9 1
    16    7    8 ar
    17    7   36 1
    18    8   37 1
    19    9   10 1
    20    9   11 1
    21    9   55 1
    22   11   12 1
    23   11   38 1
    24   11   39 1
    25   12   13 am
    26   12   40 1
    27   13   14 2
    28   13   15 1
    29   15   20 ar
    30   15   16 ar
    31   16   17 ar
    32   16   41 1
    33   17   18 ar
    34   17   23 1
    35   18   19 ar
    36   18   42 1
    37   19   20 ar
    38   19   43 1
    39   20   21 1
    40   21   22 1
    41   22   44 1
    42   22   45 1
    43   22   46 1
    44   23   24 2
    45   23   25 2
    46   23   26 1
    47   26   47 1
    48   26   48 1
    49   27   49 1
    50   27   50 1
    51   27   51 1
    52   27   55 1
    53   28   52 1
    54   28   53 1
    55   28   54 1
    56   28   55 1
    57   55   56 1
@<TRIPOS>MOLECULE
ZINC38762532
   50    53     0     0     0
SMALL
USER_CHARGES

@<TRIPOS>ATOM
      1 C1         -0.0184    1.5028    0.0103 C.3       1 <0>        -0.1402
      2 C2          0.0021   -0.0041    0.0020 C.cat     1 <0>         0.5158
      3 N1         -1.0540   -0.7406    0.0030 N.pl3     1 <0>        -0.6196
      4 C3         -0.6463   -2.1509   -0.0075 C.3       1 <0>         0.2611
      5 H1         -1.0211   -2.6461   -0.9032 H         1 <0>         0.1735
      6 O1          0.7898   -2.1285   -0.0147 O.3       1 <0>        -0.0997
      7 N2          1.1420   -0.7539   -0.0134 N.pl3     1 <0>        -0.5024
      8 C4         -1.1616   -2.8616    1.2457 C.3       1 <0>         0.0281
      9 O2         -0.6225   -2.2286    2.4079 O.3       1 <0>        -0.3631
     10 C5         -0.9794   -2.7352    3.5986 C.2       1 <0>         0.4480
     11 O3         -1.7248   -3.6846    3.6523 O.2       1 <0>        -0.4504
     12 C6         -0.4503   -2.1198    4.8684 C.3       1 <0>         0.1816
     13 H2         -0.4404   -1.0344    4.7694 H         1 <0>         0.1245
     14 C7          0.9722   -2.6216    5.1242 C.3       1 <0>        -0.0554
     15 C8          1.5463   -1.9140    6.3245 C.2       1 <0>        -0.1775
     16 C9          1.3682   -2.2943    7.7279 C.ar      1 <0>        -0.0943
     17 C10         0.6846   -3.3254    8.3745 C.ar      1 <0>        -0.0750
     18 C11         0.7138   -3.4080    9.7383 C.ar      1 <0>        -0.1372
     19 C12         1.4175   -2.4744   10.4862 C.ar      1 <0>        -0.0924
     20 C13         2.0992   -1.4485    9.8684 C.ar      1 <0>        -0.1288
     21 C14         2.0834   -1.3455    8.4815 C.ar      1 <0>         0.0953
     22 N3          2.6486   -0.4613    7.5900 N.pl3     1 <0>        -0.5927
     23 C15         2.3227   -0.8191    6.3101 C.2       1 <0>         0.0614
     24 N4         -1.3115   -2.4999    5.9910 N.am      1 <0>        -0.7150
     25 C16        -1.4763   -3.8005    6.3036 C.2       1 <0>         0.6212
     26 O4         -0.9098   -4.6592    5.6533 O.2       1 <0>        -0.5010
     27 C17        -2.3379   -4.1809    7.4267 C.2       1 <0>        -0.2654
     28 C18        -2.6339   -5.4456    7.9120 C.2       1 <0>        -0.0602
     29 C19        -3.4841   -5.4871    8.9910 C.2       1 <0>        -0.1847
     30 C20        -3.9645   -4.3243    9.4967 C.2       1 <0>        -0.2126
     31 S1         -3.2722   -3.1376    8.5298 S.3       1 <0>         0.2045
     32 H3          1.0042    1.8801    0.0026 H         1 <0>         0.1267
     33 H4         -0.5455    1.8639   -0.8728 H         1 <0>         0.1400
     34 H5         -0.5286    1.8543    0.9071 H         1 <0>         0.1403
     35 H6          2.0466   -0.4039   -0.0200 H         1 <0>         0.4892
     36 H7         -2.2498   -2.8059    1.2734 H         1 <0>         0.1096
     37 H8         -0.8517   -3.9064    1.2242 H         1 <0>         0.1171
     38 H9          0.9506   -3.6952    5.3113 H         1 <0>         0.1036
     39 H10         1.5920   -2.4174    4.2511 H         1 <0>         0.0858
     40 H11         0.1343   -4.0551    7.7991 H         1 <0>         0.1188
     41 H12         0.1848   -4.2059   10.2381 H         1 <0>         0.1207
     42 H13         1.4307   -2.5524   11.5633 H         1 <0>         0.1274
     43 H14         2.6436   -0.7267   10.4592 H         1 <0>         0.1215
     44 H15         2.6407   -0.2962    5.4202 H         1 <0>         0.1673
     45 H16         3.1991    0.2995    7.8330 H         1 <0>         0.4182
     46 H17        -1.7630   -1.8156    6.5093 H         1 <0>         0.4098
     47 H18        -2.2228   -6.3411    7.4700 H         1 <0>         0.1497
     48 H19        -3.7660   -6.4328    9.4298 H         1 <0>         0.1416
     49 H20        -4.6349   -4.1912   10.3329 H         1 <0>         0.1913
     50 H21        -1.9684   -0.4170    0.0101 H         1 <0>         0.4737
@<TRIPOS>BOND
     1    1    2 1
     2    1   32 1
     3    1   33 1
     4    1   34 1
     5    2    7 1
     6    2    3 2
     7    3    4 1
     8    3   50 1
     9    4    5 1
    10    4    6 1
    11    4    8 1
    12    6    7 1
    13    7   35 1
    14    8    9 1
    15    8   36 1
    16    8   37 1
    17    9   10 1
    18   10   11 2
    19   10   12 1
    20   12   13 1
    21   12   14 1
    22   12   24 1
    23   14   38 1
    24   14   39 1
    25   14   15 1
    26   15   16 1
    27   15   23 2
    28   16   17 ar
    29   16   21 ar
    30   17   18 ar
    31   17   40 1
    32   18   19 ar
    33   18   41 1
    34   19   20 ar
    35   19   42 1
    36   20   21 ar
    37   20   43 1
    38   21   22 1
    39   22   45 1
    40   22   23 1
    41   23   44 1
    42   24   25 am
    43   24   46 1
    44   25   26 2
    45   25   27 1
    46   27   31 1
    47   27   28 2
    48   28   29 1
    49   28   47 1
    50   29   30 2
    51   29   48 1
    52   30   31 1
    53   30   49 1
@<TRIPOS>MOLECULE
ZINC54037704
   54    56     0     0     0
SMALL
USER_CHARGES

@<TRIPOS>ATOM
      1 C1         -0.9944    1.4683    0.2506 C.3       1 <0>        -0.1308
      2 C2         -0.4096    0.0830    0.1511 C.ar      1 <0>        -0.0080
      3 C3         -0.2561   -0.5158   -1.0825 C.ar      1 <0>        -0.1229
      4 C4          0.2810   -1.7872   -1.1756 C.ar      1 <0>        -0.0769
      5 C5          0.6673   -2.4671   -0.0339 C.ar      1 <0>        -0.1329
      6 C6          0.5193   -1.8799    1.2055 C.ar      1 <0>        -0.0884
      7 C7         -0.0167   -0.5948    1.3060 C.ar      1 <0>        -0.1423
      8 C8         -0.1726    0.0431    2.6306 C.2       1 <0>         0.5653
      9 O1         -0.5309    1.2019    2.7087 O.2       1 <0>        -0.5032
     10 N1          0.0826   -0.6604    3.7515 N.am      1 <0>        -0.5366
     11 N2         -0.0651   -0.0559    5.0067 N.am      1 <0>        -0.5192
     12 C9          0.1901   -0.7593    6.1277 C.2       1 <0>         0.7194
     13 O2          0.0619   -0.2347    7.2170 O.2       1 <0>        -0.5440
     14 N3          0.5875   -2.0442    6.0411 N.am      1 <0>        -0.7640
     15 C10         0.8649   -2.8089    7.2596 C.3       1 <0>         0.1139
     16 C11         1.3742   -4.2015    6.8829 C.3       1 <0>         0.1226
     17 H1          2.3394   -4.1128    6.3842 H         1 <0>         0.1687
     18 C12         1.5275   -5.0345    8.1293 C.2       1 <0>        -0.1035
     19 C13         2.6929   -5.4094    8.6866 C.2       1 <0>        -0.1209
     20 C14         2.3722   -6.1738    9.8319 C.2       1 <0>        -0.2122
     21 C15         1.0299   -6.2202    9.9061 C.2       1 <0>         0.0122
     22 O3          0.5236   -5.5236    8.8755 O.3       1 <0>        -0.1767
     23 N4          0.4131   -4.8463    5.9782 N.4       1 <0>        -0.3837
     24 C16        -0.9131   -4.8632    6.6071 C.3       1 <0>        -0.0259
     25 C17        -1.9344   -5.4604    5.6366 C.3       1 <0>        -0.1417
     26 C18        -1.5177   -6.8906    5.2818 C.3       1 <0>        -0.1390
     27 C19        -0.1033   -6.8690    4.6951 C.3       1 <0>        -0.1437
     28 C20         0.8502   -6.2197    5.7005 C.3       1 <0>        -0.0076
     29 H2         -0.1882    2.2001    0.3026 H         1 <0>         0.0823
     30 H3         -1.6093    1.6670   -0.6272 H         1 <0>         0.0669
     31 H4         -1.6085    1.5399    1.1482 H         1 <0>         0.0948
     32 H5         -0.5563    0.0092   -1.9773 H         1 <0>         0.1377
     33 H6          0.3990   -2.2515   -2.1436 H         1 <0>         0.1345
     34 H7          1.0853   -3.4597   -0.1133 H         1 <0>         0.1317
     35 H8          0.8212   -2.4115    2.0958 H         1 <0>         0.1138
     36 H9          0.3686   -1.5851    3.6892 H         1 <0>         0.4095
     37 H10        -0.3511    0.8689    5.0691 H         1 <0>         0.4534
     38 H11         0.6897   -2.4628    5.1721 H         1 <0>         0.3815
     39 H12         1.6226   -2.2918    7.8483 H         1 <0>         0.1253
     40 H13        -0.0493   -2.9026    7.8457 H         1 <0>         0.1045
     41 H14         3.6836   -5.1725    8.3276 H         1 <0>         0.1637
     42 H15         3.0709   -6.6326   10.5158 H         1 <0>         0.1654
     43 H16         0.4567   -6.7282   10.6675 H         1 <0>         0.2196
     44 H17        -0.8772   -5.4677    7.5134 H         1 <0>         0.1446
     45 H18        -1.2069   -3.8450    6.8619 H         1 <0>         0.1322
     46 H19        -2.9180   -5.4737    6.1061 H         1 <0>         0.1144
     47 H20        -1.9713   -4.8565    4.7299 H         1 <0>         0.0861
     48 H21        -1.5302   -7.5074    6.1804 H         1 <0>         0.0827
     49 H22        -2.2108   -7.3006    4.5472 H         1 <0>         0.0962
     50 H23         0.2220   -7.8893    4.4916 H         1 <0>         0.1150
     51 H24        -0.1022   -6.2944    3.7689 H         1 <0>         0.0881
     52 H25         1.8582   -6.2029    5.2860 H         1 <0>         0.1325
     53 H26         0.8485   -6.7952    6.6261 H         1 <0>         0.1314
     54 H27         0.3665   -4.3279    5.1137 H         1 <0>         0.4144
@<TRIPOS>BOND
     1    1    2 1
     2    1   29 1
     3    1   30 1
     4    1   31 1
     5    2    7 ar
     6    2    3 ar
     7    3    4 ar
     8    3   32 1
     9    4    5 ar
    10    4   33 1
    11    5    6 ar
    12    5   34 1
    13    6    7 ar
    14    6   35 1
    15    7    8 1
    16    8    9 2
    17    8   10 am
    18   10   11 1
    19   10   36 1
    20   11   12 am
    21   11   37 1
    22   12   13 2
    23   12   14 am
    24   14   15 1
    25   14   38 1
    26   15   16 1
    27   15   39 1
    28   15   40 1
    29   16   17 1
    30   16   18 1
    31   16   23 1
    32   18   22 1
    33   18   19 2
    34   19   20 1
    35   19   41 1
    36   20   21 2
    37   20   42 1
    38   21   22 1
    39   21   43 1
    40   23   28 1
    41   23   24 1
    42   23   54 1
    43   24   25 1
    44   24   44 1
    45   24   45 1
    46   25   26 1
    47   25   46 1
    48   25   47 1
    49   26   27 1
    50   26   48 1
    51   26   49 1
    52   27   28 1
    53   27   50 1
    54   27   51 1
    55   28   52 1
    56   28   53 1
@<TRIPOS>MOLECULE
ZINC63126741
   54    56     0     0     0
SMALL
USER_CHARGES

@<TRIPOS>ATOM
      1 C1         -0.0187    1.5258    0.0104 C.3       1 <0>        -0.1713
      2 C2          0.0021   -0.0041    0.0020 C.3       1 <0>         0.0690
      3 H1         -1.0205   -0.3814    0.0098 H         1 <0>         0.1141
      4 C3          0.7074   -0.4901   -1.2379 C.2       1 <0>         0.5245
      5 O1          1.7530   -1.0971   -1.1421 O.2       1 <0>        -0.5234
      6 N1          0.1764   -0.2501   -2.4531 N.am      1 <0>        -0.8434
      7 O2          0.6932   -0.4774    1.1597 O.3       1 <0>        -0.3209
      8 C4         -0.0420   -0.6966    2.2612 C.2       1 <0>         0.4470
      9 O3         -1.2328   -0.4933    2.2430 O.2       1 <0>        -0.4709
     10 C5          0.6180   -1.1963    3.5205 C.3       1 <0>         0.1863
     11 H2          1.3714   -0.4786    3.8452 H         1 <0>         0.1452
     12 C6          1.2842   -2.5460    3.2461 C.3       1 <0>        -0.0973
     13 C7          2.0471   -2.9874    4.4685 C.2       1 <0>         0.0607
     14 C8          1.6102   -3.8153    5.4448 C.ar      1 <0>        -0.1603
     15 C9          0.3421   -4.5245    5.6534 C.ar      1 <0>        -0.0230
     16 C10         0.1967   -5.2986    6.7528 C.ar      1 <0>        -0.1410
     17 C11         1.2239   -5.4399    7.6960 C.ar      1 <0>         0.0537
     18 C12         2.4168   -4.8201    7.5733 C.ar      1 <0>        -0.2067
     19 C13         2.6794   -3.9814    6.4551 C.ar      1 <0>         0.3296
     20 N2          3.7362   -3.2834    6.1166 N.pl3     1 <0>        -0.5801
     21 C14         3.4586   -2.5995    4.8486 C.3       1 <0>         0.0605
     22 N3         -0.3909   -1.3542    4.5709 N.am      1 <0>        -0.7013
     23 C15        -0.7449   -0.2980    5.3296 C.2       1 <0>         0.6571
     24 O4         -0.2272    0.7853    5.1423 O.2       1 <0>        -0.5538
     25 O5         -1.6721   -0.4432    6.2950 O.3       1 <0>        -0.3509
     26 C16        -1.9988    0.7184    7.0606 C.3       1 <0>         0.1295
     27 C17        -3.0462    0.3663    8.0852 C.ar      1 <0>        -0.1073
     28 C18        -4.3873    0.4750    7.7681 C.ar      1 <0>        -0.0910
     29 C19        -5.3482    0.1521    8.7080 C.ar      1 <0>        -0.1201
     30 C20        -4.9679   -0.2799    9.9649 C.ar      1 <0>        -0.1018
     31 C21        -3.6269   -0.3895   10.2817 C.ar      1 <0>        -0.1230
     32 C22        -2.6660   -0.0707    9.3404 C.ar      1 <0>        -0.0946
     33 H3          1.0039    1.9031    0.0027 H         1 <0>         0.0781
     34 H4         -0.5459    1.8868   -0.8726 H         1 <0>         0.0868
     35 H5         -0.5289    1.8773    0.9072 H         1 <0>         0.0784
     36 H6         -0.6599    0.2354   -2.5297 H         1 <0>         0.4063
     37 H7          0.6304   -0.5629   -3.2512 H         1 <0>         0.4135
     38 H8          0.5205   -3.2863    3.0075 H         1 <0>         0.1251
     39 H9          1.9706   -2.4481    2.4051 H         1 <0>         0.1524
     40 H10        -0.4629   -4.4293    4.9398 H         1 <0>         0.1585
     41 H11        -0.7355   -5.8213    6.9084 H         1 <0>         0.1594
     42 H12         1.0540   -6.0702    8.5563 H         1 <0>         0.1618
     43 H13         3.1758   -4.9616    8.3285 H         1 <0>         0.1615
     44 H14         4.1585   -2.9289    4.0806 H         1 <0>         0.1809
     45 H15         3.5283   -1.5201    4.9832 H         1 <0>         0.1763
     46 H16        -0.8041   -2.2190    4.7204 H         1 <0>         0.4127
     47 H17        -1.1047    1.0838    7.5658 H         1 <0>         0.0803
     48 H18        -2.3844    1.4935    6.3983 H         1 <0>         0.0831
     49 H19        -4.6844    0.8125    6.7862 H         1 <0>         0.1259
     50 H20        -6.3959    0.2377    8.4605 H         1 <0>         0.1293
     51 H21        -5.7186   -0.5315   10.6994 H         1 <0>         0.1283
     52 H22        -3.3298   -0.7267   11.2637 H         1 <0>         0.1275
     53 H23        -1.6182   -0.1598    9.5867 H         1 <0>         0.1218
     54 H24         4.5646   -3.2310    6.6185 H         1 <0>         0.4571
@<TRIPOS>BOND
     1    1    2 1
     2    1   33 1
     3    1   34 1
     4    1   35 1
     5    2    3 1
     6    2    4 1
     7    2    7 1
     8    4    5 2
     9    4    6 am
    10    6   36 1
    11    6   37 1
    12    7    8 1
    13    8    9 2
    14    8   10 1
    15   10   11 1
    16   10   12 1
    17   10   22 1
    18   12   13 1
    19   12   38 1
    20   12   39 1
    21   13   21 1
    22   13   14 2
    23   14   19 ar
    24   14   15 ar
    25   15   16 ar
    26   15   40 1
    27   16   17 ar
    28   16   41 1
    29   17   18 ar
    30   17   42 1
    31   18   19 ar
    32   18   43 1
    33   19   20 2
    34   20   21 1
    35   20   54 1
    36   21   44 1
    37   21   45 1
    38   22   23 am
    39   22   46 1
    40   23   24 2
    41   23   25 1
    42   25   26 1
    43   26   27 1
    44   26   47 1
    45   26   48 1
    46   27   32 ar
    47   27   28 ar
    48   28   29 ar
    49   28   49 1
    50   29   30 ar
    51   29   50 1
    52   30   31 ar
    53   30   51 1
    54   31   32 ar
    55   31   52 1
    56   32   53 1
