@<TRIPOS>MOLECULE
2ETR-Y27
 40 41 0 0 0
SMALL
SF_CHARGES


@<TRIPOS>ATOM
1    O        50.2210  102.2230   28.6230  O.2        1 SUBUNIT     -0.5280
2    C        51.0510  101.4790   29.1290  C.2        1 SUBUNIT      0.6458
3    C        51.8760  101.9220   30.3110  C.3        1 SUBUNIT     -0.0306
4    C        52.8670  103.0170   29.9120  C.3        1 SUBUNIT     -0.0639
5    C        53.7390  103.4220   31.1040  C.3        1 SUBUNIT     -0.0613
6    C        52.9100  103.8740   32.3170  C.3        1 SUBUNIT     -0.0336
7    C        51.8370  102.8340   32.6670  C.3        1 SUBUNIT     -0.0613
8    C        50.9950  102.4390   31.4520  C.3        1 SUBUNIT     -0.0639
9    C        53.7690  104.2330   33.5400  C.3        1 SUBUNIT      0.1737
10   C        54.6740  103.0980   34.0250  C.3        1 SUBUNIT     -0.1150
11   N        54.5870  105.3960   33.2510  N.4        1 SUBUNIT     -0.4443
12   N        51.3120  100.2310   28.7210  N.am       1 SUBUNIT     -0.5329
13   C        50.9190   99.6340   27.5640  C.2        1 SUBUNIT      0.1129
14   C        50.4320  100.3340   26.4560  C.2        1 SUBUNIT     -0.1338
15   C        50.0570   99.6300   25.3100  C.2        1 SUBUNIT      0.1729
16   N        50.1660   98.2910   25.2620  N.2        1 SUBUNIT     -0.4963
17   C        50.6360   97.5930   26.3080  C.2        1 SUBUNIT      0.1729
18   C        51.0210   98.2460   27.4780  C.2        1 SUBUNIT     -0.1338
19   H        52.4225  101.0360   30.6508  H          1 SUBUNIT      0.0490
20   H        53.5093  102.6436   29.1076  H          1 SUBUNIT      0.0555
21   H        52.3115  103.8924   29.5596  H          1 SUBUNIT      0.0555
22   H        54.3511  102.5628   31.3973  H          1 SUBUNIT      0.0551
23   H        54.3903  104.2468   30.7965  H          1 SUBUNIT      0.0551
24   H        52.4075  104.8012   32.0223  H          1 SUBUNIT      0.0529
25   H        52.3287  101.9381   33.0602  H          1 SUBUNIT      0.0551
26   H        51.1752  103.2533   33.4320  H          1 SUBUNIT      0.0551
27   H        50.4378  103.3151   31.1041  H          1 SUBUNIT      0.0555
28   H        50.2925  101.6520   31.7455  H          1 SUBUNIT      0.0555
29   H        53.0741  104.4731   34.3514  H          1 SUBUNIT      0.0413
30   H        54.0842  102.2214   34.3124  H          1 SUBUNIT      0.0600
31   H        55.2610  103.4089   34.8955  H          1 SUBUNIT      0.0600
32   H        55.3730  102.7908   33.2401  H          1 SUBUNIT      0.0600
33   H        55.2016  105.2207   32.4715  H          1 SUBUNIT      0.3147
34   H        55.1565  105.6434   34.0451  H          1 SUBUNIT      0.3147
35   H        54.0139  106.1925   33.0205  H          1 SUBUNIT      0.3147
36   H        51.8664   99.6736   29.3519  H          1 SUBUNIT      0.3254
37   H        50.3467  101.4062   26.4855  H          1 SUBUNIT      0.1102
38   H        49.6749  100.1465   24.4469  H          1 SUBUNIT      0.0824
39   H        50.7087   96.5228   26.2238  H          1 SUBUNIT      0.0824
40   H        51.3960   97.6801   28.3128  H          1 SUBUNIT      0.1102
@<TRIPOS>BOND
     1    1    2 2
     2    2    3 1
     3    2   12 1
     4    3    4 1
     5    3    8 1
     6    4    5 1
     7    5    6 1
     8    6    7 1
     9    6    9 1
    10    7    8 1
    11    9   10 1
    12    9   11 1
    13   12   13 1
    14   13   14 2
    15   13   18 1
    16   14   15 1
    17   15   16 2
    18   16   17 1
    19   17   18 2
    20    3   19 1
    21    4   20 1
    22    4   21 1
    23    5   22 1
    24    5   23 1
    25    6   24 1
    26    7   25 1
    27    7   26 1
    28    8   27 1
    29    8   28 1
    30    9   29 1
    31   10   30 1
    32   10   31 1
    33   10   32 1
    34   11   33 1
    35   11   34 1
    36   11   35 1
    37   12   36 1
    38   14   37 1
    39   15   38 1
    40   17   39 1
    41   18   40 1
